
*** ChampSim Multicore Out-of-Order Simulator ***

Warmup Instructions: 10000000
Simulation Instructions: 50000000
Number of CPUs: 4
LLC sets: 8192
LLC ways: 16
Off-chip DRAM Size: 4096 MB Channels: 1 Width: 64-bit Data Rate: 3200 MT/s

CPU 0 runs /home/skhan/Assignments/CS204Project/ChampSim/dpc3_traces/gcc_56B.trace.xz
CPU 1 runs /home/skhan/Assignments/CS204Project/ChampSim/dpc3_traces/gcc_39B.trace.xz
CPU 2 runs /home/skhan/Assignments/CS204Project/ChampSim/dpc3_traces/gcc_13B.trace.xz
CPU 3 runs /home/skhan/Assignments/CS204Project/ChampSim/dpc3_traces/gcc_13B.trace.xz
CPU 0 Bimodal branch predictor
CPU 1 Bimodal branch predictor
CPU 2 Bimodal branch predictor
CPU 3 Bimodal branch predictor
0 0 0 0 
0 0 0 0 
0 0 0 0 
0 0 0 0 
0 0 0 0 
0 0 0 0 
0 0 0 0 
0 0 0 0 
0 0 0 0 
0 0 0 0 
0 0 0 0 
0 0 0 0 
0 0 0 0 
0 0 0 0 
1 0 0 0 
0 0 1 0 
0 0 0 0 
0 1 0 0 
0 0 0 0 
0 0 0 0 
0 0 0 0 
0 0 0 0 
0 0 0 0 
0 0 0 0 
0 0 0 0 
0 0 0 0 
0 0 0 0 
0 0 0 0 
0 0 0 0 
0 0 0 0 
0 0 0 0 
0 1 0 0 
0 0 0 0 
0 0 0 0 
0 0 0 0 
0 0 0 0 
1 0 0 0 
0 0 0 0 
0 0 0 0 
0 0 0 0 
0 0 0 0 
0 0 0 0 
0 0 0 0 
0 0 0 0 
0 0 0 0 
0 0 0 0 
0 0 0 0 
0 0 0 0 
1 0 0 0 
0 0 0 0 
0 0 0 0 
0 0 0 0 
0 0 0 0 
0 0 0 0 
0 0 0 0 
0 0 0 0 
0 0 0 1 
0 0 0 1 
0 0 0 0 
0 1 0 0 
1 0 0 0 
1 0 1 0 
1 0 1 0 
0 0 1 0 
0 0 0 0 
0 0 0 0 
1 0 0 0 
0 1 0 1 
0 0 1 0 
1 0 0 0 
0 0 0 0 
0 0 1 0 
0 0 0 1 
0 0 1 0 
0 0 0 0 
1 0 0 0 
1 0 0 0 
0 0 0 0 
1 0 0 0 
1 0 0 0 
0 0 0 0 
1 1 0 0 
0 0 0 1 
1 0 0 0 
2 0 0 0 
0 0 0 1 
1 0 0 0 
0 0 0 1 
0 0 1 0 
1 0 0 0 
1 0 0 0 
0 0 0 0 
1 0 0 0 
1 0 0 0 
1 0 0 0 
1 0 0 1 
0 0 0 1 
1 0 0 0 
1 0 0 0 
2 0 0 0 
1 0 0 0 
1 0 0 1 
2 0 0 0 
1 1 0 1 
1 0 1 0 
0 0 0 1 
1 0 1 0 
1 0 1 0 
3 0 0 0 
1 0 1 0 
1 1 0 1 
2 0 0 1 
1 0 0 1 
2 0 0 0 
2 0 0 0 
2 0 0 0 
0 0 0 0 
2 0 0 0 
1 0 0 0 
0 0 0 0 
0 0 0 0 
1 0 0 0 
1 0 0 1 
0 0 0 2 
0 0 0 1 
1 0 2 0 
1 0 0 1 
1 1 0 0 
0 0 0 0 
1 0 2 0 
0 0 1 1 
1 0 0 0 
1 0 0 0 
3 0 1 0 
2 0 0 0 
0 0 0 1 
1 0 2 0 
1 0 0 1 
1 1 0 2 
0 0 0 1 
2 0 1 1 
1 0 0 0 
2 0 0 0 
3 0 0 0 
1 0 1 0 
2 0 1 0 
2 0 1 0 
0 0 1 0 
2 0 0 0 
1 0 1 0 
2 0 0 0 
0 0 1 0 
0 0 1 1 
2 0 0 1 
0 0 0 1 
1 0 0 0 
1 0 0 0 
1 0 1 0 
1 0 1 1 
0 0 1 2 
1 0 0 1 
1 0 0 1 
0 0 1 3 
0 0 1 1 
2 0 1 0 
0 0 1 0 
0 0 0 1 
0 0 0 1 
1 0 3 0 
1 0 0 0 
1 1 0 3 
0 0 0 2 
2 0 1 2 
1 0 1 0 
0 0 1 1 
0 0 0 1 
0 0 1 0 
2 0 1 0 
0 0 1 1 
0 0 2 3 
2 0 0 2 
1 0 1 1 
0 0 1 0 
0 0 0 0 
1 0 2 0 
1 0 0 0 
1 0 1 0 
0 0 1 1 
2 0 1 0 
1 1 0 2 
1 0 1 0 
1 0 0 1 
1 0 0 1 
3 0 1 1 
1 0 2 1 
1 0 2 0 
1 0 0 1 
1 0 2 0 
2 0 0 1 
0 0 0 0 
1 0 1 1 
1 0 1 1 
2 0 1 0 
1 0 2 1 
0 0 1 1 
0 0 1 0 
1 0 1 1 
0 0 2 1 
0 0 1 1 
0 0 2 0 
1 0 0 2 
3 0 2 1 
0 0 2 1 
2 0 2 0 
2 0 1 1 
2 0 0 0 
0 0 2 1 
0 0 2 4 
1 0 2 1 
2 0 0 1 
0 0 0 2 
1 0 1 1 
1 0 3 1 
0 0 1 2 
0 1 0 0 
1 1 0 1 
1 0 0 2 
1 0 1 0 
1 0 1 1 
0 1 2 1 
2 0 1 1 
0 0 1 2 
1 0 1 0 
1 0 3 0 
1 0 1 2 
0 0 0 2 
1 0 0 2 
1 0 0 0 
1 1 1 3 
1 0 0 1 
1 0 1 2 
1 0 2 0 
1 0 0 2 
3 0 2 2 
2 0 0 1 
1 1 1 4 
1 0 2 1 
1 0 2 2 
0 0 2 1 
0 0 3 1 
0 0 0 1 
2 0 1 0 
1 0 2 1 
0 0 1 2 
0 1 1 0 
1 0 3 0 
1 0 2 0 
0 0 2 0 
2 0 1 2 
1 1 1 2 
1 0 1 1 
1 0 3 0 
1 0 1 1 
1 0 1 2 
1 0 2 0 
1 0 2 2 
3 0 3 2 
1 0 1 0 
1 1 1 5 
1 0 3 0 
2 0 1 1 
3 0 0 1 
0 0 3 1 
0 0 3 2 
2 0 3 0 
2 0 1 1 
2 0 1 2 
0 0 0 3 
1 0 1 0 
1 0 2 2 
1 0 3 2 
0 0 2 2 
1 0 1 2 
0 0 2 2 
0 1 1 1 
1 0 1 1 
2 0 2 0 
1 0 2 1 
1 0 2 1 
0 0 0 2 
0 1 3 1 
0 0 2 2 
1 0 4 0 
2 0 2 0 
2 0 1 1 
0 0 1 2 
1 0 3 1 
1 1 1 6 
0 0 1 2 
2 0 2 2 
0 0 0 1 
0 0 3 3 
0 0 1 1 
2 0 1 2 
2 0 2 0 
1 0 1 1 
1 0 3 2 
1 0 3 3 
0 0 2 3 
0 0 1 1 
1 0 1 2 
1 1 0 2 
0 0 2 1 
1 0 3 1 
0 0 2 3 
2 0 3 0 
0 0 1 2 
1 0 3 1 
0 1 3 2 
1 0 4 0 
1 0 4 1 
1 0 3 2 
2 0 2 1 
1 0 0 3 
1 0 1 1 
0 0 3 2 
1 1 2 6 
1 0 4 0 
3 0 0 2 
1 0 1 1 
1 0 3 1 
0 0 3 4 
2 0 3 1 
0 0 2 1 
0 0 3 0 
2 0 2 1 
3 0 2 0 
0 0 2 5 
2 0 1 3 
0 0 1 3 
1 0 4 2 
0 0 2 4 
1 0 2 2 
0 1 3 3 
1 1 1 3 
1 0 4 2 
1 0 1 2 
1 0 2 2 
1 0 2 1 
1 0 1 2 
1 1 2 7 
0 0 1 3 
2 0 3 2 
2 0 1 2 
1 0 1 2 
2 0 4 0 
1 0 2 3 
0 0 2 1 
1 0 3 4 
0 0 1 0 
0 1 3 2 
0 0 4 4 
0 0 2 2 
2 0 2 2 
1 0 1 2 
0 0 3 2 
1 0 1 3 
1 0 3 1 
1 0 3 1 
1 0 3 3 
1 0 3 1 
0 1 3 3 
2 0 0 2 
1 0 4 3 
0 1 2 1 
1 0 1 3 
1 1 1 2 
0 0 2 2 
1 0 1 2 
1 0 3 2 
1 0 3 2 
0 0 3 1 
0 0 3 2 
2 0 0 3 
0 0 1 4 
0 0 1 1 
0 0 2 1 
1 0 1 3 
1 1 2 2 
0 0 1 3 
0 0 2 3 
0 0 0 2 
1 0 2 2 
1 0 3 2 
1 0 2 3 
1 1 3 3 
0 0 5 4 
2 0 4 1 
2 0 1 2 
0 0 3 1 
0 0 3 1 
0 0 1 5 
1 0 2 3 
0 0 3 3 
0 1 3 1 
1 0 1 4 
0 0 2 3 
1 0 5 0 
1 0 5 2 
1 0 2 3 
1 0 3 2 
1 0 4 1 
1 0 3 4 
2 0 3 1 
1 0 4 1 
0 0 3 3 
3 0 1 2 
0 0 5 5 
0 0 4 1 
0 0 3 1 
1 0 5 3 
0 0 2 4 
1 0 3 3 
2 0 4 1 
2 0 2 3 
1 0 5 1 
1 0 4 2 
3 0 1 3 
1 0 3 3 
2 0 1 3 
0 0 3 2 
0 0 2 0 
2 0 3 1 
3 0 2 1 
0 1 4 3 
2 0 1 4 
1 0 3 2 
1 0 1 4 
0 0 2 5 
1 0 5 1 
0 0 2 1 
0 1 3 2 
1 1 2 3 
1 0 4 2 
0 0 3 2 
0 0 4 2 
1 0 2 4 
3 0 3 3 
1 0 5 2 
3 0 1 4 
1 0 4 3 
0 0 6 5 
2 0 5 1 
2 0 2 3 
2 0 1 3 
2 0 1 3 
0 0 2 1 
2 0 1 5 
1 0 3 3 
1 0 2 4 
0 0 3 4 
0 0 3 3 
0 1 5 3 
1 1 1 4 
1 0 1 3 
1 0 2 5 
1 0 5 2 
0 0 1 4 
0 0 3 3 
2 0 2 4 
2 0 4 1 
1 0 5 2 
1 0 2 1 
1 0 3 3 
1 0 2 2 
1 0 5 3 
0 0 3 4 
0 0 4 3 
2 0 3 3 
1 1 1 5 
1 0 3 3 
1 0 5 3 
1 0 3 5 
0 0 1 5 
1 0 6 2 
1 0 1 3 
1 0 2 2 
1 1 2 8 
1 0 3 3 
1 0 5 3 
0 0 2 2 
0 1 6 3 
1 1 1 6 
1 0 5 2 
1 0 3 5 
1 0 4 3 
1 1 3 8 
1 0 4 3 
1 1 4 3 
2 0 3 4 
2 0 1 4 
1 0 3 4 
0 0 3 1 
1 0 4 4 
0 0 3 5 
1 1 5 3 
0 0 5 1 
2 0 2 4 
0 0 3 5 
0 0 2 6 
1 0 3 5 
0 0 3 4 
1 0 2 3 
1 0 5 4 
2 0 3 5 
0 0 4 5 
1 0 3 4 
1 0 3 3 
3 0 3 4 
1 0 6 3 
1 0 2 3 
1 0 5 0 
0 0 4 1 
0 0 3 5 
1 1 2 4 
1 0 3 5 
1 0 6 3 
1 0 3 3 
0 0 5 3 
0 1 7 3 
1 0 1 4 
1 0 5 3 
1 0 5 3 
1 0 3 4 
1 0 6 3 
1 0 6 4 
1 0 3 3 
1 0 2 3 
1 0 6 4 
2 0 3 6 
0 0 3 3 
0 0 3 6 
1 0 2 1 
0 0 3 6 
1 0 3 2 
1 0 4 5 
2 0 3 3 
1 0 7 3 
1 0 3 4 
2 0 3 4 
1 0 3 6 
1 0 6 3 
1 0 3 6 
2 0 4 1 
0 0 2 5 
1 0 6 5 
1 0 5 1 
1 0 2 4 
1 1 6 3 
2 0 3 4 
0 0 3 1 
0 0 2 5 
0 0 3 7 
1 0 3 7 
1 1 2 3 
1 1 3 9 
1 0 6 1 
1 0 2 5 
2 0 2 5 
3 0 2 2 
1 0 3 1 
1 0 5 4 
1 0 3 6 
0 0 2 6 
0 0 3 2 
0 0 5 1 
1 0 3 1 
1 0 3 4 
0 0 4 5 
0 1 4 2 
1 0 3 4 
1 1 2 5 
0 0 4 7 
1 0 4 2 
1 0 5 5 
2 0 4 2 
1 0 7 4 
1 0 3 5 
0 0 4 4 
0 0 6 3 
0 1 7 4 
2 0 3 5 
1 1 2 6 
1 0 1 5 
1 0 6 3 
0 0 5 2 
1 0 6 3 
1 0 4 6 
1 0 7 3 
1 0 3 5 
1 0 6 4 
1 0 4 7 
3 0 4 4 
2 0 4 2 
0 0 3 5 
1 0 6 6 
1 0 3 4 
1 1 3 3 
1 1 4 9 
0 0 4 3 
2 0 3 5 
1 0 6 2 
2 0 2 2 
0 0 1 2 
3 0 2 4 
1 0 3 5 
1 0 5 3 
1 0 7 4 
1 1 7 3 
0 0 7 5 
2 0 6 1 
2 0 3 7 
0 0 5 2 
2 0 2 6 
0 0 3 4 
0 0 3 2 
2 0 4 2 
3 0 2 3 
0 0 3 2 
0 0 4 6 
2 0 2 5 
1 0 3 5 
2 0 2 3 
0 0 3 7 
1 0 4 1 
1 0 6 4 
1 1 8 3 
0 0 8 5 
2 0 7 1 
2 0 4 7 
0 0 6 2 
2 0 3 6 
0 0 4 4 
0 0 4 2 
2 0 5 2 
3 0 3 3 
0 0 4 2 
0 0 5 6 
2 0 3 5 
1 0 4 5 
2 0 3 3 
0 0 4 7 
1 0 5 1 
1 0 7 4 
1 0 4 6 
0 0 3 6 
0 0 4 2 
0 0 6 1 
1 0 4 1 
1 0 3 5 
0 0 4 6 
0 1 4 3 
1 0 3 5 
1 1 2 6 
0 0 4 8 
1 0 4 3 
1 0 6 5 
2 0 5 2 
1 0 8 4 
1 0 4 5 
0 0 5 4 
0 0 7 3 
0 1 8 4 
2 0 4 5 
1 1 3 6 
1 0 2 5 
1 0 7 3 
0 0 5 3 
1 0 6 4 
1 0 4 7 
1 0 7 4 
1 0 4 5 
1 0 7 4 
1 0 5 7 
3 0 5 4 
2 0 5 2 
0 0 4 5 
1 0 7 6 
1 1 4 3 
1 1 5 9 
0 0 5 3 
2 0 4 5 
1 0 7 2 
2 0 3 2 
3 0 3 4 
1 0 4 5 
1 0 6 3 
1 0 8 4 
1 1 9 3 
0 0 6 4 
0 0 8 3 
2 0 5 5 
1 0 8 3 
0 0 6 3 
1 0 7 4 
1 0 5 7 
1 0 8 4 
1 0 5 5 
1 0 8 4 
1 0 5 8 
3 0 5 5 
2 0 5 3 
0 0 4 6 
1 0 8 6 
1 0 4 4 
1 1 4 4 
1 1 5 9 
0 0 5 4 
2 0 4 6 
1 0 7 3 
2 0 3 3 
0 0 2 2 
3 0 4 4 
1 0 5 5 
1 0 7 3 
1 0 9 4 
1 1 10 3 
0 0 9 5 
2 0 8 1 
2 0 4 8 
0 0 6 3 
2 0 3 7 
0 0 4 5 
0 0 5 2 
2 0 6 2 
3 0 4 3 
0 0 5 2 
0 0 6 6 
2 0 4 5 
1 0 5 5 
2 0 4 3 
0 0 5 7 
1 0 6 1 
1 0 8 4 
1 0 5 6 
0 0 4 6 
0 0 5 2 
0 0 7 1 
1 0 5 1 
1 0 4 5 
0 0 5 6 
0 1 5 3 
1 0 4 5 
1 1 3 6 
0 0 5 8 
1 0 5 3 
1 0 7 5 
2 0 6 2 
0 0 6 2 
1 0 9 4 
1 0 5 5 
0 0 7 4 
0 0 9 3 
0 1 9 4 
2 0 6 5 
1 1 4 6 
1 0 3 5 
1 0 9 3 
0 0 7 3 
1 0 8 4 
1 0 6 7 
1 0 9 4 
1 0 6 5 
1 0 9 4 
1 0 6 8 
3 0 6 5 
2 0 6 3 
0 0 5 6 
1 0 9 6 
1 0 5 4 
1 1 5 4 
1 1 5 9 
0 0 6 4 
2 0 5 6 
1 0 8 3 
2 0 4 3 
0 0 3 2 
3 0 5 4 
1 0 6 5 
1 0 8 3 
1 0 10 4 
1 1 10 4 
0 0 9 6 
2 0 8 2 
0 0 7 3 
2 0 4 7 
0 0 5 5 
0 1 6 2 
2 0 7 2 
3 0 5 3 
0 0 6 2 
0 0 7 6 
2 0 5 5 
1 0 6 5 
2 0 5 3 
0 0 6 7 
1 0 7 1 
1 0 9 4 
1 0 6 6 
0 0 5 6 
0 0 6 2 
0 0 8 1 
1 0 6 1 
1 0 5 5 
0 0 6 6 
0 1 6 3 
1 0 5 5 
1 1 4 6 
0 0 6 8 
1 0 6 3 
1 0 8 5 
2 0 7 2 
1 0 10 4 
1 0 6 5 
0 0 8 4 
0 0 10 3 
0 1 10 4 
2 0 7 5 
1 1 5 6 
1 0 4 5 
1 0 9 3 
2 0 5 3 
3 0 6 4 
1 0 7 5 
1 0 9 3 
1 0 11 4 
1 1 10 4 
0 0 9 7 
2 0 8 3 
2 0 4 9 
0 0 7 4 
2 0 4 8 
0 0 5 6 
0 1 6 3 
2 0 7 3 
3 0 5 4 
0 0 6 3 
0 0 7 7 
2 0 6 5 
1 0 7 5 
2 0 6 3 
0 0 7 7 
1 0 8 1 
1 0 10 4 
1 0 7 6 
0 0 6 6 
0 0 7 2 
0 0 9 1 
1 0 7 1 
1 0 6 5 
0 0 7 6 
0 1 7 3 
1 0 5 6 
1 1 4 7 
0 0 6 9 
1 0 6 4 
1 0 9 5 
2 0 8 2 
1 0 11 4 
1 0 7 5 
0 0 9 4 
0 0 11 3 
0 1 11 4 
2 0 8 5 
1 1 6 6 
1 0 5 5 
1 0 10 3 
0 0 8 3 
1 0 9 4 
1 0 7 7 
1 0 9 5 
1 0 6 6 
1 0 9 5 
1 0 6 9 
3 0 7 5 
2 0 7 3 
0 0 6 6 
1 0 9 6 
1 0 6 4 
1 1 6 4 
1 1 5 9 
0 0 7 4 
2 0 6 6 
1 0 7 6 
1 0 9 4 
1 0 11 4 
1 1 10 4 
0 0 9 7 
2 0 8 4 
2 0 4 10 
0 0 7 5 
2 0 4 9 
0 0 5 7 
0 1 6 4 
2 0 7 4 
2 0 6 6 
1 0 7 6 
2 0 6 4 
0 0 7 8 
1 0 8 2 
1 0 10 5 
1 0 7 7 
0 0 7 3 
0 0 9 2 
1 0 7 2 
1 0 7 5 
0 0 8 6 
0 1 8 3 
1 0 6 6 
1 1 4 8 
0 0 6 10 
1 0 6 5 
1 0 9 6 
2 0 8 3 
1 0 11 4 
1 0 8 5 
0 0 10 4 
0 0 12 3 
0 1 11 4 
2 0 9 5 
1 1 7 6 
1 0 6 5 
1 0 11 3 
0 0 9 3 
1 0 10 4 
1 0 8 7 
1 0 10 5 
1 0 7 6 
1 0 10 5 
1 0 6 9 
3 0 8 5 
2 0 8 3 
0 0 7 6 
1 0 9 6 
1 0 7 4 
1 1 7 4 
1 1 5 9 
0 0 8 4 
2 0 7 6 
1 0 9 4 
2 0 6 3 
0 0 4 2 
3 0 6 5 
1 0 8 6 
1 0 10 4 
1 0 11 4 
1 1 10 4 
0 0 9 7 
2 0 9 4 
2 0 4 10 
0 0 8 5 
2 0 5 9 
0 0 6 7 
0 1 7 4 
2 0 7 5 
3 0 5 5 
0 0 6 4 
0 0 7 8 
2 0 6 7 
1 0 7 7 
2 0 7 4 
0 0 8 8 
1 0 9 2 
1 0 10 5 
1 0 8 7 
0 0 6 7 
0 0 7 4 
0 0 9 3 
1 0 7 3 
1 0 7 6 
0 0 8 7 
0 1 8 4 
1 0 6 7 
1 1 4 9 
0 0 6 10 
1 0 6 6 
1 0 9 6 
2 0 8 4 
1 0 11 4 
1 0 8 6 
0 0 10 5 
0 0 12 4 
0 1 11 4 
2 0 9 5 
1 1 7 7 
1 0 6 6 
1 0 11 4 
0 0 9 4 
1 0 10 5 
1 0 8 7 
1 0 10 5 
1 0 7 7 
1 0 10 5 
1 0 6 9 
3 0 8 5 
2 0 8 4 
0 0 8 6 
1 0 9 6 
1 0 8 4 
1 1 8 4 
1 1 5 9 
0 0 8 5 
2 0 7 7 
1 0 10 4 
2 0 7 3 
0 0 4 3 
3 0 6 6 
1 0 8 7 
1 0 10 5 
1 0 11 4 
1 1 10 4 
0 0 9 7 
2 0 9 5 
0 0 7 9 
2 0 6 8 
1 0 7 8 
2 0 7 5 
0 0 8 8 
1 0 9 3 
1 0 10 5 
1 0 8 7 
0 0 8 6 
1 0 8 7 
0 0 6 8 
0 0 7 5 
0 0 9 4 
1 0 7 4 
1 0 7 7 
0 0 8 8 
0 1 8 5 
1 0 6 8 
1 1 4 10 
0 0 6 10 
1 0 6 7 
1 0 9 6 
2 0 8 5 
1 0 11 4 
1 0 8 7 
0 0 10 6 
1 0 7 8 
1 0 10 5 
0 0 8 8 
0 1 8 6 
1 0 7 8 
1 1 4 10 
0 0 6 10 
1 0 7 7 
1 0 9 6 
2 0 9 5 
1 0 11 4 
1 0 8 7 
0 0 10 6 
0 0 12 4 
0 1 11 4 
2 0 9 5 
1 1 7 7 
1 0 6 7 
1 0 11 4 
2 0 7 4 
0 0 4 4 
3 0 6 7 
1 0 8 7 
1 0 10 5 
1 0 11 4 
1 1 10 4 
0 0 9 7 
2 0 9 5 
2 0 4 10 
0 0 8 6 
2 0 5 9 
0 0 6 8 
0 1 7 5 
2 0 7 6 
3 0 5 6 
0 0 6 5 
0 0 7 9 
2 0 8 5 
0 0 8 8 
1 0 10 3 
1 0 10 5 
1 0 8 7 
0 0 7 8 
0 0 8 5 
0 0 10 4 
1 0 7 5 
1 0 7 8 
0 0 8 8 
0 1 9 6 
1 0 7 8 
1 1 4 10 
0 0 6 10 
1 0 8 7 
1 0 9 6 
2 0 9 5 
1 0 11 4 
1 0 8 7 
0 0 10 6 
0 0 12 4 
0 1 11 4 
2 0 9 5 
1 1 7 7 
1 0 6 8 
1 0 11 4 
0 0 9 5 
1 0 10 5 
1 0 8 7 
1 0 10 5 
1 0 7 8 
1 1 9 5 
1 0 6 9 
3 0 8 5 
2 0 8 5 
0 0 8 7 
1 0 8 5 
1 1 8 5 
1 1 5 9 
0 0 12 4 
0 0 8 7 
2 0 7 7 
1 0 10 5 
2 0 8 4 
1 0 7 8 
2 0 9 5 
0 0 6 6 
0 0 7 9 
2 0 6 8 
1 0 7 8 
2 0 9 5 
0 0 8 8 
1 0 10 4 
1 0 10 5 
3 0 5 7 
0 0 6 7 
0 0 7 9 
2 0 6 8 
1 0 7 8 
2 0 9 5 
0 0 8 8 
1 0 10 5 
1 0 10 5 
0 0 8 6 
0 0 10 5 
1 0 7 6 
1 0 7 8 
0 0 8 8 
0 1 9 6 
1 0 7 8 
1 1 4 10 
0 0 6 10 
1 0 8 7 
1 0 9 6 
2 0 9 5 
1 0 11 4 
1 0 8 7 
0 0 10 6 
0 1 11 4 
0 1 11 4 
2 0 9 5 
1 1 7 7 
1 0 7 8 
1 0 11 4 
0 0 10 5 
1 0 10 5 
1 0 8 7 
1 0 10 5 
1 0 7 8 
1 1 9 5 
1 0 6 9 
3 0 8 5 
2 0 9 5 
0 0 9 7 
1 0 9 6 
1 0 8 6 
1 1 8 6 
1 1 5 9 
0 0 8 8 
2 0 7 7 
1 0 10 5 
2 0 9 4 
0 0 5 4 
3 0 6 7 
1 0 8 7 
1 0 10 5 
1 0 11 4 
1 1 10 4 
0 0 9 7 
2 0 9 5 
2 0 4 10 
0 0 9 6 
2 0 5 9 
0 0 7 8 
0 1 8 5 
2 0 8 6 
3 0 5 8 
0 0 6 8 
0 0 7 9 
2 0 6 8 
1 0 7 8 
2 0 9 5 
0 0 8 8 
1 0 10 5 
1 0 10 5 
1 0 8 7 
0 0 7 9 
0 0 9 6 
3 0 8 5 
1 1 8 6 
1 1 5 9 
0 0 8 8 
2 0 7 7 
1 0 10 5 
2 0 10 4 
0 0 6 4 
3 0 6 7 
1 0 8 7 
1 0 10 5 
1 0 11 4 
1 1 10 4 
2 0 9 5 
2 0 4 10 
0 0 10 6 
2 0 5 9 
0 0 8 8 
0 1 9 5 
2 0 8 6 
3 0 5 8 
0 0 6 9 
0 0 7 9 
2 0 6 8 
1 0 7 8 
2 0 9 5 
0 0 8 8 
1 0 10 5 
1 0 10 5 
1 0 8 7 
0 0 7 9 
0 0 10 6 
0 0 11 5 
1 0 8 6 
1 0 7 8 
0 0 8 8 
0 1 9 6 
1 0 7 8 
1 1 4 10 
0 0 6 10 
1 0 8 7 
1 0 9 6 
2 0 9 5 
1 0 11 4 
1 0 8 7 
0 0 10 6 
2 0 4 10 
0 1 11 4 
0 1 11 4 
2 0 9 5 
1 1 7 7 
1 0 7 8 
1 0 11 4 
0 0 11 5 
1 0 10 5 
1 0 8 7 
1 1 9 5 
1 0 6 9 
1 0 9 6 
1 0 9 6 
0 0 9 7 
1 0 7 8 
0 1 9 6 
2 0 8 6 
3 0 5 8 
0 0 11 5 
1 0 9 6 
1 0 7 8 
1 1 4 10 
0 0 6 10 
1 0 8 7 
1 0 9 6 
2 0 9 5 
2 0 9 5 
1 1 7 7 
1 0 7 8 
1 0 8 7 
1 0 7 8 
3 0 8 5 
2 0 9 5 
1 0 9 6 
1 1 5 9 
0 0 8 8 
3 0 6 7 
1 0 10 5 
2 0 9 5 
0 0 10 6 
2 0 5 9 
0 0 7 9 
0 0 7 9 
2 0 6 8 
1 0 7 8 
2 0 9 5 
0 0 7 9 
2 0 9 5 
0 0 7 9 
0 0 10 6 
0 0 11 5 
1 0 7 8 
1 1 4 10 
1 0 8 7 
1 0 9 6 
1 0 11 4 
1 0 8 7 
2 0 9 5 
1 0 7 8 
1 0 11 4 
1 0 8 7 
1 0 7 8 
1 0 6 9 
3 0 8 5 
2 0 9 5 
0 0 9 7 
1 0 9 6 
1 1 8 6 
0 0 8 8 
1 0 10 5 
2 0 10 4 
1 0 11 4 
0 0 9 7 
2 0 9 5 
1 0 7 8 
0 1 9 6 
2 0 8 6 
3 0 5 8 
2 0 9 5 
2 0 9 5 
0 0 9 7 
1 0 9 6 
2 0 5 9 
1 1 8 6 
1 1 5 9 
2 0 10 4 
0 0 6 5 
3 0 6 7 
0 1 11 4 
0 0 10 6 
0 1 11 4 
2 0 8 6 
2 0 9 5 
2 0 9 5 
1 1 7 7 
2 0 9 5 
1 0 8 7 
1 0 7 8 
1 0 8 7 
3 0 8 5 
2 0 9 5 
0 0 7 9 
0 0 9 7 
1 0 9 6 
1 1 8 6 
1 1 5 9 
0 0 10 6 
1 0 10 5 
2 0 10 4 
1 0 11 4 
0 0 9 7 
2 0 4 10 
0 0 10 6 
2 0 5 9 
2 0 8 6 
3 0 5 8 
1 0 7 8 
1 0 8 7 
2 0 9 5 
0 0 8 8 
1 0 8 7 
0 0 7 9 
0 1 9 6 
1 1 4 10 
1 0 9 6 
2 0 9 5 
1 0 11 4 
0 0 10 6 
1 0 7 8 
1 1 7 7 
0 1 11 4 
1 0 7 8 
1 0 6 9 
3 0 8 5 
1 0 9 6 
1 1 8 6 
1 1 5 9 
0 1 11 4 
2 0 7 7 
1 0 10 5 
2 0 10 4 
0 0 9 7 
1 0 8 7 
1 0 7 8 
0 0 6 10 
2 0 8 6 
1 0 10 5 
2 0 9 5 
0 0 7 9 
3 0 6 7 
1 0 11 4 
0 0 11 5 
1 1 7 7 
2 0 5 9 
0 1 11 4 
2 0 9 5 
1 0 11 4 
1 0 10 5 
1 0 8 7 
0 0 7 9 
0 1 9 6 
0 0 8 8 
0 0 6 10 
1 0 8 7 
1 0 9 6 
0 0 11 5 
0 0 11 5 
1 0 10 5 
1 0 7 8 
1 0 10 5 
1 0 7 8 
1 1 9 5 
1 0 6 9 
3 0 8 5 
2 0 9 5 
0 0 9 7 
1 0 8 7 
1 0 9 6 
1 0 9 6 
1 1 8 6 
1 1 5 9 
1 0 8 7 
0 0 8 8 
2 0 7 7 
1 0 10 5 
0 0 7 9 
2 0 10 4 
1 0 8 7 
1 0 11 4 
1 0 10 5 
1 1 10 4 
0 0 9 7 
2 0 9 5 
0 1 9 6 
0 0 10 6 
1 0 7 8 
0 1 9 6 
2 0 8 6 
3 0 5 8 
0 0 7 9 
0 0 7 9 
2 0 6 8 
2 0 4 10 
2 0 5 9 
2 0 9 5 
0 0 8 8 
1 0 10 5 
1 0 8 7 
1 0 10 5 
1 0 8 7 
3 0 8 5 
0 0 7 9 
1 0 9 6 
1 0 9 6 
0 0 8 8 
1 0 7 8 
0 1 9 6 
1 0 7 8 
1 1 4 10 
2 0 9 5 
0 0 6 10 
1 0 10 5 
1 0 8 7 
1 0 9 6 
2 0 9 5 
0 0 10 6 
1 0 7 8 
1 0 11 4 
0 0 11 5 
0 0 9 7 
2 0 9 5 
1 0 10 5 
1 0 8 7 
1 0 7 8 
1 1 9 5 
1 0 6 9 
3 0 8 5 
1 0 8 7 
2 0 9 5 
1 0 9 6 
1 1 7 7 
0 0 10 6 
1 1 8 6 
0 0 8 8 
2 0 7 7 
0 1 11 4 
1 0 10 5 
2 0 10 4 
0 0 6 6 
0 0 9 7 
3 0 6 7 
1 0 8 7 
1 0 9 6 
1 0 10 5 
1 0 11 4 
2 0 9 5 
2 0 4 10 
2 0 9 5 
0 0 10 6 
2 0 5 9 
1 0 7 8 
0 1 9 6 
1 1 7 7 
2 0 8 6 
3 0 5 8 
0 0 7 9 
0 0 7 9 
1 0 7 8 
2 0 6 8 
1 0 7 8 
1 0 10 5 
1 0 10 5 
0 0 7 9 
0 0 10 6 
0 0 11 5 
1 0 9 6 
1 0 7 8 
0 0 8 8 
1 0 7 8 
0 0 6 10 
1 0 8 7 
1 0 7 8 
1 0 9 6 
2 0 9 5 
1 0 11 4 
0 1 9 6 
1 0 9 6 
1 1 4 10 
1 0 10 5 
1 0 6 9 
2 0 10 4 
0 0 7 6 
3 0 6 7 
1 0 8 7 
3 0 8 5 
2 0 5 9 
1 0 10 5 
1 0 11 4 
1 1 10 4 
0 0 9 7 
2 0 4 10 
0 0 10 6 
0 0 9 7 
1 0 7 8 
0 1 9 6 
2 0 8 6 
1 0 9 6 
3 0 5 8 
0 0 7 9 
0 0 7 9 
2 0 6 8 
2 0 9 5 
2 0 5 9 
0 0 8 8 
1 0 10 5 
1 0 10 5 
1 0 8 7 
1 1 5 9 
0 0 7 9 
0 0 10 6 
0 0 11 5 
1 0 9 6 
1 0 7 8 
1 0 7 8 
0 1 9 6 
2 0 7 7 
1 1 4 10 
0 0 6 10 
1 0 8 7 
1 0 11 4 
1 0 8 7 
0 0 8 8 
1 0 7 8 
0 1 11 4 
2 0 9 5 
1 1 7 7 
1 0 11 4 
1 0 7 8 
3 0 6 7 
1 0 11 4 
0 0 11 5 
1 0 10 5 
1 0 8 7 
1 0 10 5 
1 1 9 5 
1 0 6 9 
1 0 8 7 
3 0 8 5 
2 0 9 5 
0 0 9 7 
1 0 9 6 
1 0 9 6 
1 1 8 6 
1 1 5 9 
1 0 8 7 
1 0 7 8 
0 0 10 6 
2 0 7 7 
1 0 10 5 
3 0 5 8 
0 0 7 9 
0 0 7 9 
2 0 9 5 
2 0 6 8 
2 0 9 5 
0 0 8 8 
0 0 9 7 
2 0 4 10 
1 0 10 5 
1 0 10 5 
1 0 8 7 
0 0 7 9 
0 0 10 6 
0 0 11 5 
2 0 5 9 
1 0 7 8 
1 0 7 8 
0 0 8 8 
0 1 9 6 
1 0 7 8 
1 1 4 10 
0 0 6 10 
1 0 8 7 
1 0 9 6 
1 0 9 6 
1 0 8 7 
0 0 10 6 
2 0 8 6 
0 1 11 4 
0 1 11 4 
3 0 5 8 
2 0 9 5 
1 1 7 7 
1 0 7 8 
0 0 7 9 
0 0 11 5 
1 0 10 5 
1 0 8 7 
1 0 10 5 
0 0 7 9 
1 0 7 8 
1 1 9 5 
0 1 9 6 
1 0 6 9 
0 0 11 5 
2 0 9 5 
1 0 11 4 
1 0 9 6 
1 0 9 6 
1 1 8 6 
1 0 7 8 
1 1 5 9 
1 0 10 5 
2 0 10 4 
2 0 9 5 
1 0 7 8 
0 0 7 7 
3 0 6 7 
1 0 8 7 
0 0 8 8 
1 0 10 5 
1 0 11 4 
0 0 9 7 
2 0 9 5 
0 1 9 6 
2 0 8 6 
2 0 9 5 
1 0 10 5 
1 1 7 7 
1 0 7 8 
1 1 10 4 
1 0 11 4 
0 0 11 5 
1 1 10 4 
1 0 10 5 
1 0 8 7 
1 0 10 5 
0 0 9 7 
1 0 7 8 
1 1 9 5 
1 1 5 9 
2 0 9 5 
0 0 8 8 
2 0 7 7 
1 0 10 5 
0 0 7 8 
3 0 6 7 
1 0 8 7 
1 0 10 5 
1 1 7 7 
1 0 7 8 
1 0 11 4 
1 0 10 5 
2 0 10 4 
1 0 10 5 
1 0 7 8 
0 2 8 6 
1 1 9 5 
1 0 6 9 
3 0 8 5 
2 0 8 6 
2 0 9 5 
1 0 9 6 
2 0 9 5 
1 0 9 6 
3 0 5 8 
1 1 8 6 
1 1 5 9 
1 0 8 7 
1 0 9 6 
0 0 7 9 
1 0 8 7 
1 0 9 6 
2 0 9 5 
0 0 7 9 
1 0 11 4 
1 0 9 6 
1 0 8 7 
0 0 10 6 
0 1 11 4 
0 1 11 4 
1 0 9 6 
1 0 7 8 
1 0 7 8 
0 0 8 8 
2 0 8 6 
0 1 9 6 
1 0 7 8 
2 0 9 5 
1 1 4 10 
0 0 6 10 
1 0 8 7 
1 0 9 6 
0 0 8 8 
2 0 9 5 
1 0 11 4 
1 0 8 7 
0 0 10 6 
0 1 11 4 
0 1 11 4 
2 0 9 5 
1 0 10 5 
1 1 7 7 
1 0 7 8 
1 0 11 4 
1 0 8 7 
0 0 11 5 
1 0 10 5 
1 0 8 7 
0 0 7 9 
1 0 7 8 
1 0 6 9 
1 0 9 6 
3 0 8 5 
1 0 8 7 
2 0 9 5 
2 0 8 6 
2 0 8 6 
1 0 9 6 
1 1 8 6 
1 0 10 5 
2 0 7 7 
1 1 9 5 
1 0 11 4 
1 0 10 5 
2 0 10 4 
0 0 7 9 
1 0 7 8 
3 0 6 7 
1 0 8 7 
1 0 10 5 
0 0 8 8 
1 0 11 4 
1 1 10 4 
1 1 5 9 
0 1 9 6 
2 0 9 5 
0 0 10 6 
1 0 10 5 
0 2 8 6 
2 0 8 6 
3 0 5 8 
1 0 7 8 
0 0 7 9 
0 0 7 9 
2 0 6 8 
1 1 4 10 
1 0 7 8 
2 0 9 5 
0 0 6 10 
0 0 8 8 
1 0 10 5 
0 0 9 7 
1 0 8 7 
1 0 8 7 
0 0 10 6 
0 0 11 5 
1 0 9 6 
1 0 7 8 
1 0 9 6 
0 0 8 8 
0 1 9 6 
1 0 7 8 
2 0 9 5 
0 0 6 10 
2 0 9 5 
0 0 7 9 
1 0 11 4 
1 0 11 4 
1 0 8 7 
0 0 10 6 
0 1 11 4 
0 1 11 4 
1 0 8 7 
2 0 9 5 
1 1 7 7 
1 0 7 8 
0 0 10 6 
1 0 11 4 
0 0 11 5 
1 0 10 5 
2 0 7 7 
1 0 10 5 
0 1 11 4 
1 0 7 8 
1 1 9 5 
1 0 6 9 
0 1 11 4 
3 0 8 5 
2 0 9 5 
2 0 8 6 
2 0 9 5 
2 0 8 6 
1 0 9 6 
1 1 8 6 
1 1 7 7 
0 0 8 8 
1 0 10 5 
1 0 7 8 
0 0 7 9 
3 0 6 7 
1 0 8 7 
1 0 11 4 
1 0 10 5 
1 0 11 4 
1 1 10 4 
0 0 9 7 
2 0 9 5 
2 0 4 10 
0 0 10 6 
1 0 10 5 
2 0 5 9 
2 0 7 7 
2 0 10 4 
0 2 8 6 
2 0 8 6 
2 0 7 7 
3 0 5 8 
0 0 7 9 
0 0 7 9 
2 0 6 8 
3 0 8 5 
1 0 7 8 
2 0 9 5 
1 0 7 8 
0 0 8 8 
1 0 7 8 
1 0 10 5 
2 0 9 5 
0 0 7 9 
0 0 10 6 
1 1 9 5 
1 0 10 5 
1 0 7 8 
1 0 10 5 
1 0 10 5 
1 0 8 7 
0 0 7 9 
0 0 10 6 
1 0 10 5 
1 1 8 6 
0 2 8 6 
1 0 8 7 
1 0 7 8 
1 1 4 10 
0 0 6 10 
1 0 8 7 
1 0 9 6 
2 0 9 5 
2 0 8 6 
2 0 7 7 
0 0 8 8 
1 1 10 4 
0 0 9 7 
2 0 9 5 
2 0 4 10 
0 0 10 6 
2 0 5 9 
1 0 7 8 
1 0 10 5 
0 2 8 6 
2 0 8 6 
3 0 5 8 
2 0 10 4 
0 0 7 9 
0 0 7 9 
2 0 6 8 
0 0 8 8 
1 0 10 5 
1 0 9 6 
0 0 8 8 
0 1 9 6 
1 0 7 8 
1 1 4 10 
0 0 6 10 
1 0 8 7 
1 0 7 8 
1 0 9 6 
2 0 9 5 
1 0 11 4 
3 0 6 7 
1 0 8 7 
0 0 10 6 
1 0 8 7 
0 1 11 4 
0 1 11 4 
2 0 9 5 
1 0 10 5 
1 1 7 7 
2 0 9 5 
2 0 9 5 
1 0 8 7 
0 0 10 6 
0 1 11 4 
0 1 11 4 
2 0 9 5 
1 1 10 4 
1 1 7 7 
1 0 7 8 
1 0 11 4 
0 0 10 6 
0 0 11 5 
1 0 11 4 
1 0 7 8 
0 1 11 4 
1 1 9 5 
1 0 6 9 
3 0 8 5 
2 0 9 5 
2 0 9 5 
2 0 8 6 
1 0 11 4 
1 0 9 6 
1 1 8 6 
0 0 9 7 
2 0 7 7 
0 0 8 8 
2 0 7 7 
1 0 10 5 
2 0 10 4 
1 0 10 5 
0 0 7 9 
3 0 6 7 
2 0 8 6 
1 0 10 5 
2 0 7 7 
1 0 11 4 
1 1 10 4 
0 0 9 7 
2 0 9 5 
1 1 5 9 
2 0 4 10 
0 0 10 6 
2 0 5 9 
1 0 7 8 
1 0 7 8 
0 2 8 6 
2 0 8 6 
3 0 5 8 
1 1 9 5 
0 0 7 9 
0 0 7 9 
1 0 6 9 
2 0 9 5 
1 0 10 5 
1 0 10 5 
3 0 8 5 
1 0 8 7 
0 0 7 9 
0 0 10 6 
2 0 9 5 
2 0 9 5 
1 0 10 5 
1 0 9 6 
2 0 6 8 
0 0 8 8 
2 1 8 5 
1 0 7 8 
1 0 7 8 
0 0 8 8 
1 1 4 10 
0 0 6 10 
2 0 8 6 
1 0 8 7 
1 0 9 6 
2 0 9 5 
1 0 9 6 
1 0 11 4 
1 0 8 7 
0 0 10 6 
1 1 8 6 
0 1 11 4 
0 1 9 6 
2 0 8 6 
2 0 9 5 
1 1 7 7 
1 1 5 9 
1 0 9 6 
1 0 7 8 
1 0 11 4 
0 0 11 5 
2 0 6 8 
1 0 10 5 
1 0 7 8 
1 1 9 5 
2 0 7 7 
1 0 6 9 
3 0 8 5 
0 1 11 4 
2 0 9 5 
2 1 8 5 
1 0 10 5 
1 1 8 6 
1 1 5 9 
0 0 8 8 
2 0 7 7 
1 0 10 5 
2 0 10 4 
2 0 10 4 
1 0 7 8 
0 0 7 9 
3 0 6 7 
0 0 7 9 
1 0 8 7 
1 1 10 4 
3 0 6 7 
2 0 9 5 
1 1 10 4 
2 0 4 10 
0 0 7 9 
0 0 10 6 
1 0 8 7 
2 0 5 9 
1 0 7 8 
0 2 8 6 
1 0 10 5 
2 0 8 6 
1 0 10 5 
2 0 9 5 
0 0 9 7 
1 0 7 8 
0 0 7 9 
2 0 6 8 
1 0 7 8 
2 0 9 5 
0 0 8 8 
1 0 10 5 
1 0 10 5 
1 0 8 7 
0 0 7 9 
3 0 5 8 
1 0 10 5 
3 0 5 8 
0 0 8 8 
0 1 9 6 
0 0 10 6 
1 0 7 8 
1 1 4 10 
0 0 6 10 
2 0 5 9 
1 0 8 7 
0 0 8 8 
1 1 8 6 
1 0 7 8 
0 0 10 6 
0 0 7 9 
1 0 9 6 
1 0 8 7 
0 0 7 9 
0 0 10 6 
0 2 8 6 
1 0 10 5 
1 0 7 8 
1 0 9 6 
0 1 9 6 
1 0 7 8 
2 0 8 6 
0 0 7 9 
2 0 6 8 
3 0 5 8 
0 0 10 6 
2 0 5 9 
1 0 7 8 
1 0 7 8 
1 0 7 8 
0 2 8 6 
2 0 8 6 
3 0 5 8 
0 0 7 9 
1 0 7 8 
0 0 7 9 
2 0 6 8 
1 0 7 8 
2 0 6 8 
2 0 9 5 
0 0 8 8 
1 0 10 5 
1 0 7 8 
1 0 10 5 
1 0 8 7 
0 0 7 9 
0 0 10 6 
2 0 9 5 
1 0 10 5 
1 0 9 6 
3 0 5 8 
0 0 8 8 
0 0 8 8 
0 1 9 6 
1 1 8 6 
1 0 7 8 
1 0 10 5 
1 1 4 10 
0 0 6 10 
1 0 8 7 
1 0 10 5 
1 1 8 6 
2 0 9 5 
1 0 8 7 
1 0 8 7 
0 1 11 4 
2 0 9 5 
1 1 7 7 
0 0 7 9 
1 0 7 8 
1 0 11 4 
0 0 11 5 
0 0 10 6 
1 0 10 5 
2 0 7 7 
1 0 10 5 
1 0 10 5 
1 0 7 8 
1 1 9 5 
1 0 10 5 
1 0 11 4 
1 0 6 9 
0 0 10 6 
3 0 8 5 
1 0 9 6 
2 0 9 5 
2 1 8 5 
2 0 8 6 
3 0 5 8 
1 0 9 6 
1 1 8 6 
1 1 5 9 
0 0 8 8 
0 0 8 8 
2 0 7 7 
1 0 10 5 
2 0 10 4 
0 1 9 6 
0 0 7 9 
3 0 6 7 
1 0 8 7 
1 0 7 8 
1 0 10 5 
1 1 10 4 
1 1 4 10 
2 0 9 5 
0 0 10 6 
2 0 5 9 
0 0 6 10 
1 0 7 8 
2 0 6 8 
3 0 5 8 
1 0 8 7 
1 0 7 8 
0 0 7 9 
2 0 6 8 
1 0 7 8 
1 1 8 6 
0 0 8 8 
0 0 9 7 
2 0 4 10 
1 0 10 5 
2 0 9 5 
1 0 8 7 
0 0 7 9 
0 0 10 6 
1 0 11 4 
1 0 10 5 
1 0 9 6 
2 0 9 5 
3 0 5 8 
0 0 8 8 
1 0 10 5 
1 0 8 7 
1 0 7 8 
1 1 4 10 
0 0 6 10 
0 0 10 6 
1 0 8 7 
1 1 8 6 
2 0 9 5 
1 0 11 4 
0 1 11 4 
1 0 8 7 
1 0 11 4 
0 0 10 6 
0 1 11 4 
0 1 11 4 
0 1 11 4 
3 0 5 8 
0 1 9 6 
2 0 9 5 
2 0 9 5 
1 1 7 7 
1 0 7 8 
0 0 11 5 
0 0 11 5 
1 1 7 7 
1 0 10 5 
2 0 9 5 
2 0 7 7 
1 0 10 5 
1 0 7 8 
1 1 7 7 
1 1 9 5 
1 0 7 8 
1 0 6 9 
1 0 7 8 
3 0 8 5 
2 0 9 5 
1 0 11 4 
2 1 8 5 
1 0 10 5 
2 0 8 6 
1 0 10 5 
1 1 4 10 
1 0 9 6 
0 0 11 5 
1 1 8 6 
1 1 5 9 
1 0 7 8 
0 0 8 8 
1 0 10 5 
0 0 6 10 
1 0 10 5 
1 1 9 5 
1 0 10 5 
0 0 7 9 
2 0 7 7 
3 0 6 7 
1 0 8 7 
1 0 10 5 
1 0 11 4 
1 0 8 7 
1 1 10 4 
1 0 7 8 
0 0 9 7 
2 0 9 5 
2 0 4 10 
0 0 10 6 
2 0 5 9 
2 0 6 8 
0 2 8 6 
3 0 8 5 
2 0 8 6 
3 0 5 8 
2 0 7 7 
0 0 7 9 
1 0 10 5 
2 0 9 5 
2 0 6 8 
1 0 7 8 
3 0 9 4 
0 0 8 8 
2 1 8 5 
1 0 10 5 
1 0 10 5 
3 0 8 5 
1 0 8 7 
0 0 7 9 
2 0 8 6 
0 0 10 6 
1 0 10 5 
1 0 9 6 
1 0 9 6 
3 0 5 8 
0 0 8 8 
0 1 9 6 
2 0 9 5 
0 0 6 10 
1 1 8 6 
1 1 8 6 
2 0 9 5 
1 0 11 4 
1 1 5 9 
1 0 8 7 
0 1 11 4 
0 0 10 6 
0 0 8 8 
0 1 11 4 
1 1 7 7 
1 0 7 8 
2 0 7 7 
1 0 11 4 
0 0 11 5 
1 0 10 5 
1 0 10 5 
0 1 11 4 
2 0 7 7 
1 0 9 6 
1 0 10 5 
0 1 11 4 
2 0 10 4 
1 0 6 9 
3 0 8 5 
2 0 9 5 
2 0 9 5 
2 1 8 5 
2 0 8 6 
0 0 7 9 
2 0 9 5 
1 1 8 6 
1 0 9 6 
1 1 8 6 
3 0 6 7 
1 1 5 9 
0 0 8 8 
2 0 7 7 
1 0 8 7 
1 0 10 5 
0 0 9 7 
1 0 7 8 
3 0 6 7 
1 0 10 5 
1 0 8 7 
1 0 10 5 
2 0 9 5 
1 0 11 4 
1 1 10 4 
0 0 9 7 
0 0 10 6 
2 0 9 5 
2 0 10 4 
1 1 10 4 
0 0 10 6 
0 0 7 9 
2 0 5 9 
2 0 6 8 
0 2 8 6 
2 0 8 6 
2 0 6 8 
3 0 5 8 
1 0 7 8 
0 0 7 9 
0 2 8 6 
1 0 10 5 
2 0 6 8 
1 0 7 8 
2 0 8 6 
2 0 4 10 
1 0 10 5 
2 0 5 9 
1 0 10 5 
1 0 8 7 
3 0 5 8 
2 0 10 4 
0 0 7 9 
0 0 10 6 
1 0 10 5 
1 0 7 8 
1 0 9 6 
3 0 5 8 
0 0 8 8 
3 0 9 4 
0 0 7 9 
0 0 8 8 
1 0 7 8 
1 1 4 10 
0 0 7 9 
0 0 6 10 
1 0 8 7 
1 1 8 6 
2 0 9 5 
1 0 11 4 
1 0 8 7 
0 0 10 6 
0 1 11 4 
2 0 9 5 
1 1 7 7 
2 0 6 8 
1 0 7 8 
1 0 11 4 
0 0 11 5 
1 0 7 8 
1 0 10 5 
2 0 7 7 
1 0 7 8 
3 0 9 4 
0 1 11 4 
1 0 6 9 
3 0 8 5 
0 0 8 8 
2 0 9 5 
1 0 6 9 
2 1 8 5 
2 0 8 6 
1 0 11 4 
1 0 10 5 
1 0 9 6 
1 1 8 6 
1 1 5 9 
0 0 8 8 
1 0 10 5 
2 0 7 7 
1 0 10 5 
1 0 10 5 
0 0 7 9 
1 1 9 5 
3 0 6 7 
1 0 8 7 
1 0 8 7 
1 0 10 5 
1 0 11 4 
0 0 7 9 
1 1 10 4 
0 0 9 7 
0 0 10 6 
1 0 10 5 
1 0 9 6 
3 0 5 8 
0 1 9 6 
1 0 10 5 
1 0 7 8 
1 1 4 10 
0 0 6 10 
1 0 9 6 
1 0 8 7 
2 1 8 5 
1 0 7 8 
2 0 9 5 
1 1 8 6 
2 0 8 6 
2 0 9 5 
3 0 5 8 
1 0 11 4 
1 0 8 7 
1 1 4 10 
0 0 8 8 
0 0 10 6 
0 1 11 4 
0 0 8 8 
0 1 11 4 
0 0 6 10 
2 0 9 5 
1 1 7 7 
0 1 9 6 
1 0 7 8 
1 0 8 7 
1 0 11 4 
0 0 11 5 
0 0 8 8 
1 0 10 5 
1 0 10 5 
1 0 8 7 
0 0 7 9 
0 0 10 6 
1 0 10 5 
1 1 9 5 
1 1 8 6 
1 0 9 6 
3 0 5 8 
1 0 6 9 
1 0 7 8 
2 0 9 5 
1 1 4 10 
0 0 6 10 
1 0 8 7 
1 0 11 4 
1 1 8 6 
2 0 6 8 
2 0 9 5 
1 0 11 4 
1 0 8 7 
0 0 10 6 
1 1 7 7 
1 0 11 4 
0 0 10 6 
0 0 11 5 
1 0 10 5 
2 0 7 7 
0 1 11 4 
1 0 10 5 
0 2 8 6 
1 0 7 8 
1 1 9 5 
0 1 11 4 
1 0 6 9 
3 0 8 5 
2 0 9 5 
1 0 9 6 
2 0 9 5 
1 1 8 6 
1 2 5 8 
1 0 10 5 
0 0 8 8 
1 1 7 7 
2 0 7 7 
1 0 10 5 
2 0 10 4 
1 0 7 8 
3 0 6 7 
3 0 6 7 
1 0 10 5 
1 0 11 4 
1 1 10 4 
1 0 8 7 
0 0 9 7 
2 0 10 4 
2 0 9 5 
2 0 4 10 
1 0 10 5 
3 0 6 7 
0 0 10 6 
2 0 5 9 
1 0 10 5 
1 0 7 8 
1 0 11 4 
1 0 8 7 
2 0 8 6 
3 0 5 8 
1 0 7 8 
1 1 10 4 
0 0 7 9 
1 0 8 7 
2 0 6 8 
1 0 7 8 
0 0 9 7 
3 0 9 4 
2 0 6 8 
1 0 10 5 
0 2 8 6 
2 0 9 5 
0 0 7 9 
0 0 10 6 
1 0 10 5 
1 0 9 6 
3 0 5 8 
0 0 8 8 
0 0 10 6 
0 1 9 6 
1 0 7 8 
1 1 4 10 
1 0 10 5 
2 0 5 9 
1 0 8 7 
0 0 6 10 
1 0 8 7 
1 1 8 6 
2 0 6 8 
2 0 9 5 
1 0 11 4 
1 0 8 7 
0 2 8 6 
0 0 9 7 
0 0 10 6 
0 1 11 4 
0 1 11 4 
1 2 5 8 
2 0 9 5 
2 0 8 6 
1 1 7 7 
1 0 7 8 
1 0 11 4 
3 0 5 8 
0 0 11 5 
1 0 10 5 
2 0 7 7 
1 0 7 8 
1 0 10 5 
1 0 7 8 
1 1 9 5 
3 0 8 5 
0 0 7 9 
2 0 9 5 
2 1 8 5 
2 0 8 6 
1 0 9 6 
2 0 6 8 
1 1 8 6 
1 2 5 8 
0 0 8 8 
2 0 7 7 
1 0 7 8 
1 0 10 5 
1 0 8 7 
3 0 9 4 
1 0 10 5 
1 0 11 4 
0 0 7 9 
1 1 10 4 
0 0 9 7 
0 0 8 8 
2 0 9 5 
2 0 4 10 
0 0 10 6 
1 0 10 5 
2 0 5 9 
2 0 6 8 
0 2 8 6 
2 0 5 9 
2 0 8 6 
1 0 10 5 
1 0 9 6 
1 0 7 8 
2 0 6 8 
1 0 8 7 
1 0 7 8 
3 0 9 4 
0 0 8 8 
0 0 7 9 
1 0 10 5 
0 0 8 8 
1 0 10 5 
1 0 8 7 
0 0 10 6 
0 0 7 9 
3 0 5 8 
1 0 10 5 
0 0 7 9 
3 0 5 8 
1 0 10 5 
0 0 8 8 
0 1 9 6 
2 0 5 9 
1 0 7 8 
1 0 9 6 
1 1 4 10 
0 0 6 10 
1 0 8 7 
1 1 8 6 
0 0 10 6 
2 0 9 5 
1 0 9 6 
2 0 8 6 
1 0 11 4 
1 0 8 7 
1 1 8 6 
1 2 5 8 
0 0 10 6 
0 1 11 4 
0 1 11 4 
2 0 9 5 
1 1 7 7 
3 0 5 8 
1 0 7 8 
3 0 5 8 
1 0 11 4 
1 2 4 9 
0 0 11 5 
0 0 8 8 
2 0 7 7 
1 0 10 5 
0 0 6 10 
1 0 7 8 
0 1 9 6 
1 1 9 5 
1 0 6 9 
1 0 8 7 
2 0 9 5 
3 0 8 5 
1 0 7 8 
2 0 9 5 
2 1 8 5 
1 1 8 6 
2 0 8 6 
1 0 10 5 
0 1 9 6 
1 1 8 6 
2 0 9 5 
0 0 8 8 
2 0 7 7 
1 1 9 5 
2 0 10 4 
1 0 10 5 
2 0 7 7 
1 0 11 4 
1 0 11 4 
1 1 10 4 
0 0 9 7 
0 0 10 6 
2 0 5 9 
2 0 6 8 
1 0 10 5 
0 2 8 6 
3 0 5 8 
2 0 6 8 
1 0 8 7 
1 0 7 8 
2 0 9 5 
3 0 9 4 
2 0 4 10 
0 0 8 8 
1 0 10 5 
1 0 10 5 
0 0 10 6 
1 0 8 7 
0 0 7 9 
0 1 11 4 
2 0 9 5 
1 0 9 6 
2 0 10 4 
3 0 5 8 
0 0 8 8 
0 1 11 4 
1 1 8 6 
1 2 4 9 
0 0 6 10 
2 0 9 5 
1 1 8 6 
2 0 9 5 
1 0 11 4 
2 1 8 5 
1 1 7 7 
0 1 11 4 
1 0 7 8 
0 1 11 4 
2 0 9 5 
1 0 7 8 
1 0 7 8 
1 0 7 8 
2 0 8 6 
1 0 11 4 
3 0 6 7 
0 0 11 5 
1 0 11 4 
1 0 10 5 
2 0 7 7 
1 0 10 5 
0 0 11 5 
1 0 7 8 
1 1 9 5 
1 0 6 9 
1 0 10 5 
3 0 8 5 
1 1 7 7 
2 1 8 5 
2 0 7 7 
1 0 9 6 
1 1 8 6 
1 2 5 8 
1 0 10 5 
1 0 7 8 
2 0 7 7 
1 0 10 5 
1 0 7 8 
2 0 9 5 
0 0 8 8 
2 0 8 6 
1 0 8 7 
1 0 10 5 
1 0 10 5 
1 1 9 5 
1 0 11 4 
1 1 10 4 
0 0 9 7 
1 0 6 9 
2 0 9 5 
2 0 4 10 
0 0 10 6 
3 0 8 5 
2 0 5 9 
2 0 6 8 
0 2 8 6 
2 0 9 5 
2 0 8 6 
2 1 8 5 
1 0 7 8 
2 2 8 4 
0 0 7 9 
2 0 6 8 
1 0 7 8 
2 0 8 6 
3 0 9 4 
1 0 7 8 
0 0 10 6 
1 0 9 6 
0 1 11 4 
0 0 10 6 
0 1 11 4 
2 0 9 5 
1 1 8 6 
1 1 7 7 
1 0 7 8 
1 0 11 4 
0 0 11 5 
1 2 5 8 
2 0 9 5 
1 1 7 7 
1 0 7 8 
1 0 11 4 
1 0 7 8 
0 0 11 5 
1 0 10 5 
1 0 7 8 
1 1 9 5 
2 0 7 7 
1 0 6 9 
3 0 8 5 
1 0 8 7 
2 0 9 5 
2 2 8 4 
2 0 8 6 
1 0 9 6 
1 0 10 5 
1 1 8 6 
0 1 11 4 
0 1 11 4 
1 0 11 4 
2 0 9 5 
1 1 7 7 
1 0 7 8 
1 0 11 4 
1 1 10 4 
3 0 8 5 
1 0 7 8 
2 0 7 7 
0 0 9 7 
1 0 10 5 
2 0 10 4 
1 0 7 8 
2 0 9 5 
3 0 6 7 
1 0 8 7 
1 0 11 4 
1 1 10 4 
2 0 4 10 
0 0 9 7 
2 0 9 5 
2 0 4 10 
0 0 10 6 
0 0 10 6 
2 0 8 6 
2 0 5 9 
2 0 6 8 
2 0 5 9 
0 2 8 6 
0 1 11 4 
0 2 8 6 
2 0 6 8 
1 0 10 5 
1 0 10 5 
1 0 8 7 
2 0 6 8 
0 0 10 6 
0 2 8 6 
1 0 10 5 
1 0 9 6 
1 0 7 8 
3 0 5 8 
0 0 7 9 
1 1 8 6 
1 0 7 8 
1 2 4 9 
0 0 6 10 
1 0 8 7 
1 1 8 6 
2 0 9 5 
1 0 11 4 
1 0 8 7 
0 0 8 8 
3 0 9 4 
0 1 11 4 
0 1 11 4 
2 0 9 5 
1 0 7 8 
1 1 7 7 
1 0 7 8 
1 0 11 4 
1 0 10 5 
0 0 11 5 
1 0 10 5 
0 0 10 6 
1 0 10 5 
1 0 10 5 
0 0 10 6 
1 1 9 5 
1 0 10 5 
1 0 6 9 
1 0 8 7 
3 0 8 5 
2 0 9 5 
1 0 9 6 
2 2 8 4 
2 0 8 6 
1 0 9 6 
2 0 7 7 
3 0 5 8 
1 1 8 6 
1 0 7 8 
1 2 5 8 
1 0 7 8 
2 0 7 7 
0 0 8 8 
1 0 10 5 
1 0 10 5 
2 0 10 4 
1 0 7 8 
1 1 8 6 
3 0 6 7 
1 0 8 7 
1 0 10 5 
1 0 7 8 
1 0 11 4 
0 1 11 4 
1 1 10 4 
0 0 9 7 
1 2 4 9 
2 0 9 5 
2 0 4 10 
0 0 10 6 
0 0 6 10 
2 0 5 9 
2 0 6 8 
0 1 11 4 
0 2 8 6 
0 0 9 7 
1 0 8 7 
2 0 8 6 
1 0 7 8 
3 0 5 8 
1 0 7 8 
0 0 7 9 
1 1 8 6 
2 0 6 8 
1 0 7 8 
3 0 9 4 
2 0 9 5 
2 0 8 6 
1 0 7 8 
1 0 10 5 
1 0 10 5 
1 0 11 4 
0 0 10 6 
0 1 11 4 
1 0 9 6 
1 0 8 7 
3 0 5 8 
0 0 8 8 
1 1 8 6 
0 0 10 6 
2 0 9 5 
1 0 7 8 
1 0 8 7 
1 2 4 9 
0 0 6 10 
0 1 11 4 
1 0 8 7 
0 0 7 9 
1 1 8 6 
2 0 9 5 
1 0 11 4 
1 1 10 4 
2 0 9 5 
1 0 8 7 
0 0 10 6 
3 0 8 5 
0 1 11 4 
2 0 9 5 
1 1 10 4 
2 0 9 5 
1 1 7 7 
1 1 7 7 
1 0 7 8 
1 0 11 4 
0 0 11 5 
1 1 7 7 
1 0 10 5 
1 0 7 8 
2 0 9 5 
2 0 7 7 
1 0 10 5 
1 0 7 8 
1 0 11 4 
1 1 9 5 
1 0 6 9 
3 0 8 5 
1 1 10 4 
0 0 11 5 
2 2 8 4 
1 1 8 6 
1 2 5 8 
1 0 10 5 
2 0 8 6 
1 0 7 8 
2 0 7 7 
1 0 10 5 
2 0 10 4 
2 0 7 7 
1 0 7 8 
3 0 6 7 
1 0 8 7 
1 0 10 5 
2 0 9 5 
1 0 10 5 
1 0 9 6 
1 1 10 4 
0 0 9 7 
1 0 7 8 
2 0 9 5 
2 0 4 10 
0 0 10 6 
2 0 5 9 
1 1 9 5 
2 0 6 8 
2 0 8 6 
1 0 6 9 
1 0 11 4 
1 0 7 8 
0 0 7 9 
2 0 6 8 
1 0 7 8 
3 0 8 5 
3 0 8 5 
3 0 9 4 
1 0 7 8 
1 0 10 5 
2 0 9 5 
2 0 5 9 
2 0 6 8 
0 2 8 6 
2 0 8 6 
3 0 5 8 
1 0 7 8 
0 0 7 9 
3 0 9 4 
1 0 7 8 
1 0 10 5 
1 0 10 5 
1 0 8 7 
2 0 7 7 
2 2 8 4 
0 0 7 9 
0 2 8 6 
0 0 10 6 
1 1 8 6 
1 0 10 5 
1 0 9 6 
2 1 7 6 
3 0 5 8 
1 0 7 8 
1 2 4 9 
0 0 6 10 
1 0 9 6 
2 2 5 7 
1 0 8 7 
2 0 7 7 
1 1 8 6 
2 0 9 5 
1 1 8 6 
1 0 11 4 
0 0 10 6 
0 1 11 4 
2 2 5 7 
2 1 9 4 
1 0 7 8 
2 0 9 5 
1 1 7 7 
1 0 7 8 
3 0 6 7 
1 0 11 4 
0 0 11 5 
1 0 10 5 
1 0 10 5 
2 0 7 7 
1 0 8 7 
1 0 8 7 
1 1 9 5 
1 0 7 8 
2 0 10 4 
1 1 9 5 
1 0 7 8 
1 0 10 5 
3 0 8 5 
2 0 9 5 
2 1 7 6 
1 0 11 4 
1 1 8 6 
2 2 5 7 
1 0 7 8 
1 1 10 4 
2 0 7 7 
2 0 10 4 
1 0 7 8 
0 0 9 7 
3 0 6 7 
1 0 8 7 
1 0 10 5 
2 0 9 5 
1 0 11 4 
1 1 10 4 
1 0 6 9 
0 0 9 7 
2 0 4 10 
2 0 9 5 
2 0 4 10 
0 0 10 6 
0 0 10 6 
1 0 8 7 
1 0 10 5 
1 0 10 5 
2 0 5 9 
1 1 7 7 
1 0 7 8 
1 0 11 4 
0 0 7 9 
2 0 6 8 
1 0 10 5 
2 0 9 5 
1 0 10 5 
0 2 8 6 
1 0 7 8 
1 1 9 5 
1 0 9 6 
0 0 8 8 
2 0 8 6 
1 1 8 6 
1 0 7 8 
1 2 4 9 
0 0 11 5 
3 0 5 8 
0 0 7 9 
0 0 6 10 
1 0 8 7 
2 0 7 7 
1 0 7 8 
2 0 9 5 
2 2 8 4 
1 1 7 7 
1 0 7 8 
1 0 11 4 
2 1 7 6 
1 0 7 8 
0 0 11 5 
1 0 10 5 
2 0 7 7 
2 0 6 8 
1 0 10 5 
1 0 7 8 
1 1 9 5 
1 0 6 9 
1 0 7 8 
3 0 8 5 
2 0 9 5 
2 2 8 4 
3 0 9 4 
2 1 7 6 
1 0 9 6 
1 1 8 6 
1 0 7 8 
2 2 5 7 
1 0 7 8 
2 0 7 7 
1 0 10 5 
1 0 10 5 
3 0 5 8 
2 0 10 4 
1 0 7 8 
3 0 6 7 
1 0 10 5 
1 1 8 6 
1 0 8 7 
1 0 10 5 
1 0 11 4 
1 0 8 7 
1 1 10 4 
0 0 9 7 
2 0 9 5 
2 0 4 10 
0 0 7 9 
1 0 7 8 
1 0 7 8 
2 0 6 8 
0 0 10 6 
1 0 7 8 
3 0 9 4 
1 0 7 8 
1 0 10 5 
1 0 10 5 
0 0 7 9 
1 0 9 6 
0 0 10 6 
1 0 10 5 
1 0 9 6 
3 0 5 8 
1 0 11 4 
3 0 5 8 
1 0 8 7 
1 1 8 6 
1 0 7 8 
1 0 8 7 
1 0 10 5 
1 2 4 9 
0 0 6 10 
1 0 8 7 
1 2 7 6 
1 1 8 6 
2 0 9 5 
0 0 10 6 
1 0 11 4 
1 0 8 7 
1 0 7 8 
0 0 10 6 
0 1 11 4 
1 2 4 9 
2 1 9 4 
1 0 8 7 
1 1 7 7 
1 0 7 8 
1 0 11 4 
0 0 9 7 
0 0 6 10 
0 0 11 5 
1 0 10 5 
1 0 7 8 
1 0 8 7 
1 0 6 9 
3 0 8 5 
2 0 9 5 
2 0 9 5 
2 2 8 4 
1 2 7 6 
2 1 7 6 
1 0 9 6 
1 1 8 6 
2 0 9 5 
2 2 5 7 
1 0 7 8 
1 0 10 5 
3 0 5 8 
1 0 11 4 
2 0 10 4 
1 0 7 8 
1 0 8 7 
1 0 10 5 
1 0 8 7 
1 0 11 4 
1 1 10 4 
2 0 9 5 
0 0 10 6 
2 0 4 10 
0 0 10 6 
2 0 5 9 
0 2 8 6 
2 0 10 4 
1 0 7 8 
1 0 7 8 
0 0 10 6 
2 0 6 8 
1 0 7 8 
3 0 9 4 
1 0 7 8 
1 0 10 5 
1 0 10 5 
0 1 11 4 
1 0 8 7 
0 0 7 9 
1 0 7 8 
0 0 10 6 
1 0 9 6 
2 1 9 4 
1 0 8 7 
1 0 11 4 
1 0 7 8 
3 0 6 7 
2 0 9 5 
1 2 4 9 
0 0 11 5 
0 0 6 10 
1 0 8 7 
1 1 7 7 
1 2 7 6 
1 0 10 5 
1 0 11 4 
1 0 8 7 
0 0 10 6 
3 0 5 8 
2 0 7 7 
2 1 9 4 
1 1 7 7 
1 0 10 5 
1 0 7 8 
1 0 11 4 
0 0 11 5 
1 0 7 8 
2 0 9 5 
2 2 8 4 
2 1 7 6 
0 1 11 4 
1 1 9 5 
1 1 8 6 
2 0 9 5 
1 0 7 8 
1 0 6 9 
2 0 7 7 
1 0 10 5 
2 0 10 4 
3 0 8 5 
1 0 7 8 
3 0 6 7 
1 0 8 7 
1 0 9 6 
2 0 9 5 
1 0 11 4 
2 2 5 7 
0 0 9 7 
2 2 8 4 
2 0 9 5 
2 0 4 10 
0 0 10 6 
2 1 7 6 
2 0 5 9 
2 0 6 8 
0 2 8 6 
1 0 10 5 
2 0 8 6 
1 0 9 6 
3 0 5 8 
1 1 10 4 
1 0 7 8 
1 0 7 8 
1 1 8 6 
2 0 6 8 
1 0 7 8 
3 0 9 4 
2 2 5 7 
1 0 7 8 
1 1 10 4 
1 0 10 5 
1 0 7 8 
1 0 8 7 
1 0 7 8 
1 0 10 5 
1 0 9 6 
4 0 4 8 
2 0 7 7 
1 0 8 7 
1 1 8 6 
1 0 7 8 
1 0 10 5 
1 0 7 8 
0 0 6 10 
1 0 8 7 
1 2 7 6 
1 0 10 5 
2 0 10 4 
2 0 9 5 
1 0 11 4 
0 0 10 6 
1 0 8 7 
0 0 10 6 
1 0 7 8 
1 0 9 6 
0 1 11 4 
2 1 9 4 
2 0 9 5 
3 0 6 7 
1 1 7 7 
1 0 7 8 
1 0 11 4 
1 0 8 7 
0 0 11 5 
1 0 10 5 
2 0 7 7 
1 0 10 5 
1 0 7 8 
1 0 7 8 
1 0 6 9 
3 0 8 5 
2 0 9 5 
2 0 4 10 
2 2 8 4 
2 1 7 6 
1 0 7 8 
1 0 9 6 
1 1 8 6 
1 0 10 5 
2 2 5 7 
1 0 7 8 
2 0 7 7 
3 0 6 7 
1 0 11 4 
1 0 10 5 
1 1 10 4 
1 1 10 4 
1 0 8 7 
0 0 9 7 
2 0 4 10 
0 0 9 7 
2 0 5 9 
2 0 6 8 
2 0 5 9 
0 2 8 6 
2 0 8 6 
2 0 9 5 
1 0 7 8 
3 0 5 8 
1 0 7 8 
1 0 7 8 
1 0 7 8 
2 0 9 5 
1 0 7 8 
0 0 10 6 
1 0 7 8 
2 0 6 8 
1 0 10 5 
1 0 10 5 
1 0 8 7 
1 0 7 8 
0 0 7 9 
0 0 10 6 
1 0 10 5 
1 0 9 6 
3 0 9 4 
4 0 4 8 
1 0 8 7 
2 0 6 8 
1 0 8 7 
1 1 8 6 
1 0 7 8 
3 0 9 4 
1 0 7 8 
1 2 4 9 
0 0 6 10 
1 0 8 7 
1 0 10 5 
1 2 7 6 
2 0 9 5 
1 0 7 8 
1 0 11 4 
1 0 8 7 
1 0 10 5 
0 0 10 6 
2 0 9 5 
1 0 8 7 
1 0 7 8 
1 0 11 4 
2 0 8 6 
0 0 11 5 
1 0 10 5 
1 0 8 7 
1 0 9 6 
2 0 7 7 
1 0 10 5 
1 1 6 8 
1 0 8 7 
1 0 6 9 
2 0 9 5 
0 1 11 4 
2 0 9 5 
0 0 7 9 
0 0 7 9 
3 0 5 8 
2 1 7 6 
4 0 4 8 
1 0 9 6 
1 1 8 6 
0 0 10 6 
2 2 5 7 
1 0 8 7 
1 0 7 8 
2 0 7 7 
1 0 10 5 
1 0 10 5 
1 1 9 5 
1 1 8 6 
1 0 7 8 
3 0 8 5 
1 0 11 4 
1 1 10 4 
0 0 9 7 
2 0 9 5 
2 0 4 10 
0 0 10 6 
2 0 10 4 
2 0 5 9 
2 0 6 8 
0 2 8 6 
2 0 8 6 
1 0 7 8 
1 0 7 8 
2 0 7 7 
1 0 10 5 
1 2 4 9 
2 0 10 4 
1 0 7 8 
3 0 6 7 
0 0 6 10 
1 0 10 5 
1 0 8 7 
1 0 10 5 
1 0 11 4 
1 1 10 4 
1 0 8 7 
2 0 4 10 
0 0 10 6 
1 0 10 5 
1 2 7 6 
2 0 5 9 
2 0 6 8 
0 2 8 6 
2 0 9 5 
2 0 8 6 
3 0 5 8 
1 1 6 8 
1 0 7 8 
1 0 7 8 
1 0 11 4 
1 0 7 8 
3 0 9 4 
1 0 7 8 
1 0 8 7 
1 0 10 5 
1 0 10 5 
1 0 8 7 
0 0 10 6 
0 0 7 9 
0 0 10 6 
1 0 10 5 
2 0 6 8 
2 0 9 5 
1 0 8 7 
4 0 4 8 
1 0 8 7 
1 1 8 6 
1 1 8 6 
1 0 7 8 
1 2 4 9 
3 0 9 4 
0 0 6 10 
1 0 7 8 
2 0 9 5 
1 2 7 6 
0 0 10 6 
1 1 8 6 
0 1 11 4 
1 2 4 9 
2 0 9 5 
1 1 7 7 
2 0 9 5 
1 0 7 8 
0 0 6 10 
1 0 11 4 
0 0 11 5 
1 0 11 4 
1 0 10 5 
2 0 7 7 
1 0 8 7 
1 0 10 5 
1 1 6 8 
1 0 8 7 
1 1 9 5 
1 0 6 9 
3 0 8 5 
0 0 10 6 
2 0 9 5 
2 2 8 4 
2 1 7 6 
0 1 11 4 
1 0 9 6 
1 1 8 6 
2 1 9 4 
0 2 8 6 
3 0 5 8 
1 0 7 8 
2 0 9 5 
1 0 7 8 
2 0 6 8 
1 0 7 8 
1 1 7 7 
3 0 9 4 
3 0 5 8 
1 0 7 8 
1 0 10 5 
2 2 5 7 
1 0 7 8 
1 0 8 7 
0 0 7 9 
1 0 10 5 
1 0 11 4 
2 0 9 5 
4 0 4 8 
1 0 8 7 
1 1 8 6 
1 0 7 8 
1 0 10 5 
0 0 10 6 
1 2 7 6 
1 0 11 4 
1 0 8 7 
0 0 10 6 
2 0 10 4 
0 1 11 4 
2 1 9 4 
2 0 9 5 
1 1 7 7 
1 0 7 8 
1 0 7 8 
1 0 11 4 
0 0 6 10 
0 0 11 5 
1 0 10 5 
2 0 9 5 
3 0 6 7 
2 0 7 7 
1 0 10 5 
1 1 6 8 
1 0 8 7 
1 1 9 5 
1 0 6 9 
3 0 8 5 
1 0 10 5 
2 0 9 5 
2 1 7 6 
1 0 9 6 
1 0 11 4 
2 2 5 7 
1 0 7 8 
2 0 7 7 
1 1 10 4 
1 0 10 5 
2 0 10 4 
1 0 7 8 
0 0 9 7 
3 0 6 7 
1 0 11 4 
1 0 8 7 
1 0 10 5 
1 0 11 4 
2 0 9 5 
1 1 10 4 
0 0 9 7 
2 0 9 5 
2 0 4 10 
2 0 4 10 
0 0 10 6 
2 0 5 9 
2 0 6 8 
0 0 10 6 
0 2 8 6 
2 0 8 6 
4 0 5 7 
1 0 7 8 
2 0 5 9 
1 0 7 8 
2 0 6 8 
4 0 5 7 
1 0 7 8 
1 0 7 8 
2 0 6 8 
3 0 9 4 
0 0 10 6 
1 0 7 8 
1 0 7 8 
1 0 10 5 
1 0 10 5 
0 2 8 6 
1 0 8 7 
1 0 7 8 
0 0 10 6 
1 0 8 7 
2 0 8 6 
2 0 9 5 
1 0 7 8 
4 0 4 8 
1 0 8 7 
1 1 8 6 
1 0 10 5 
1 0 7 8 
1 2 4 9 
0 0 6 10 
1 0 10 5 
0 0 7 9 
1 2 7 6 
3 0 9 4 
1 0 10 5 
1 0 11 4 
1 0 8 7 
1 0 8 7 
0 0 10 6 
0 1 11 4 
0 0 7 9 
2 1 9 4 
2 0 9 5 
1 0 7 8 
1 1 7 7 
1 0 8 7 
0 0 10 6 
1 0 11 4 
2 0 9 5 
1 0 10 5 
1 0 10 5 
1 2 4 9 
2 0 7 7 
1 0 10 5 
1 1 7 7 
1 1 6 8 
2 0 9 5 
1 1 9 5 
1 0 6 9 
1 0 7 8 
3 0 8 5 
2 0 9 5 
4 0 4 8 
0 0 11 5 
2 2 8 4 
2 1 7 6 
1 0 9 6 
1 0 8 7 
1 1 8 6 
2 2 5 7 
1 0 7 8 
2 0 7 7 
1 1 8 6 
1 0 10 5 
2 0 10 4 
1 0 7 8 
4 0 4 8 
1 0 7 8 
3 0 6 7 
1 0 8 7 
0 1 11 4 
1 0 10 5 
1 0 11 4 
1 2 4 9 
1 1 10 4 
0 0 9 7 
2 0 9 5 
0 0 6 10 
2 0 4 10 
1 0 8 7 
0 0 10 6 
2 0 5 9 
0 0 11 5 
1 0 8 7 
2 0 6 8 
0 2 8 6 
2 0 8 6 
1 2 7 6 
4 0 5 7 
1 2 7 6 
1 0 7 8 
1 0 7 8 
2 0 6 8 
2 0 9 5 
1 0 7 8 
3 0 9 4 
1 0 7 8 
1 0 10 5 
1 0 10 5 
1 0 8 7 
2 0 9 5 
0 0 7 9 
0 0 10 6 
1 0 10 5 
2 0 9 5 
4 0 4 8 
1 0 8 7 
1 1 8 6 
1 0 11 4 
1 0 7 8 
1 2 4 9 
0 0 6 10 
1 0 8 7 
1 2 7 6 
1 0 11 4 
0 0 10 6 
1 0 8 7 
0 0 10 6 
0 1 11 4 
0 1 11 4 
2 1 9 4 
2 0 9 5 
1 0 7 8 
2 1 9 4 
1 0 8 7 
0 0 11 5 
2 0 9 5 
1 0 10 5 
2 0 9 5 
2 0 7 7 
1 0 10 5 
1 1 6 8 
1 1 7 7 
1 1 9 5 
1 0 6 9 
3 0 8 5 
1 1 7 7 
2 0 9 5 
1 0 7 8 
2 2 8 4 
1 0 11 4 
2 1 7 6 
1 0 9 6 
1 0 11 4 
1 1 8 6 
2 2 5 7 
1 0 7 8 
0 0 11 5 
2 0 7 7 
1 0 10 5 
2 0 10 4 
1 0 7 8 
3 0 6 7 
1 0 10 5 
1 0 10 5 
1 0 11 4 
2 0 7 7 
1 1 10 4 
0 0 9 7 
1 0 8 7 
2 0 9 5 
1 0 10 5 
2 0 4 10 
0 0 10 6 
2 0 9 5 
2 0 6 8 
1 0 8 7 
0 2 8 6 
1 1 6 8 
1 0 7 8 
2 0 6 8 
1 0 7 8 
1 1 9 5 
3 0 9 4 
1 0 7 8 
1 0 10 5 
1 0 6 9 
1 0 10 5 
1 0 8 7 
0 0 10 6 
3 0 8 5 
1 1 8 6 
1 0 9 6 
1 0 7 8 
1 2 4 9 
2 0 9 5 
0 0 6 10 
1 1 8 6 
1 0 8 7 
1 2 7 6 
2 2 8 4 
2 0 9 5 
1 0 11 4 
2 2 5 7 
1 0 8 7 
0 0 10 6 
1 0 9 6 
0 1 11 4 
1 0 7 8 
2 1 9 4 
2 0 9 5 
1 1 7 7 
1 0 7 8 
0 1 11 4 
1 0 11 4 
0 0 11 5 
1 0 10 5 
2 0 7 7 
1 0 10 5 
1 1 6 8 
1 0 7 8 
1 1 9 5 
1 0 6 9 
2 0 7 7 
3 0 8 5 
2 0 9 5 
2 0 9 5 
2 2 8 4 
1 0 10 5 
2 1 7 6 
1 0 9 6 
1 0 7 8 
2 2 5 7 
1 0 10 5 
2 0 10 4 
2 0 7 7 
1 0 7 8 
1 0 10 5 
2 0 10 4 
1 0 7 8 
2 0 6 8 
3 0 6 7 
1 0 8 7 
1 0 10 5 
1 0 7 8 
1 0 7 8 
1 0 11 4 
2 0 7 7 
1 1 10 4 
1 0 7 8 
0 0 9 7 
3 0 9 4 
2 0 9 5 
2 0 4 10 
0 0 10 6 
1 0 10 5 
1 0 7 8 
2 0 5 9 
2 0 6 8 
0 2 8 6 
2 0 8 6 
1 0 10 5 
1 1 8 6 
1 0 7 8 
2 0 6 8 
3 0 9 4 
1 0 7 8 
1 0 10 5 
1 0 10 5 
1 1 6 8 
1 0 10 5 
1 0 8 7 
4 0 5 7 
2 0 7 7 
4 0 8 4 
1 0 10 5 
1 0 7 8 
1 0 8 7 
0 0 7 9 
0 0 10 6 
1 0 7 8 
1 1 9 5 
2 0 9 5 
4 0 4 8 
2 0 6 8 
1 0 7 8 
1 1 8 6 
1 2 4 9 
1 0 10 5 
1 0 6 9 
1 0 7 8 
0 0 6 10 
1 0 8 7 
1 0 10 5 
1 2 7 6 
4 0 8 4 
2 0 9 5 
1 0 11 4 
3 0 8 5 
1 0 8 7 
1 0 7 8 
0 0 10 6 
0 1 11 4 
2 1 9 4 
2 0 9 5 
1 0 10 5 
1 0 7 8 
1 0 11 4 
2 0 10 4 
0 0 11 5 
1 0 10 5 
1 0 10 5 
2 0 7 7 
1 0 10 5 
1 1 6 8 
1 1 9 5 
2 2 8 4 
2 0 9 5 
1 0 11 4 
1 0 8 7 
0 0 10 6 
0 1 11 4 
2 1 9 4 
0 0 10 6 
1 0 8 7 
1 0 10 5 
0 0 10 6 
2 1 7 6 
1 1 9 5 
1 0 8 7 
0 1 11 4 
2 1 9 4 
1 0 7 8 
1 1 7 7 
2 0 9 5 
1 0 7 8 
1 0 11 4 
0 0 11 5 
4 0 4 8 
1 0 10 5 
2 0 7 7 
1 0 10 5 
2 0 8 6 
1 1 6 8 
1 1 9 5 
1 0 6 9 
1 1 8 6 
2 0 9 5 
3 0 8 5 
2 0 9 5 
2 2 8 4 
1 0 7 8 
2 1 7 6 
1 1 8 6 
1 0 9 6 
1 1 8 6 
1 2 4 9 
2 2 5 7 
1 0 7 8 
2 0 7 7 
2 0 6 8 
0 0 6 10 
1 0 10 5 
2 0 10 4 
1 0 7 8 
3 0 6 7 
1 0 8 7 
2 2 5 7 
1 0 8 7 
1 0 10 5 
1 0 11 4 
1 2 7 6 
0 0 9 7 
2 0 9 5 
2 0 4 10 
2 0 9 5 
0 0 10 6 
2 0 5 9 
2 1 9 4 
2 0 6 8 
1 0 11 4 
0 2 8 6 
2 0 8 6 
4 0 5 7 
1 0 7 8 
1 0 8 7 
1 0 7 8 
1 0 7 8 
4 0 8 4 
0 0 10 6 
1 0 7 8 
1 0 10 5 
1 0 10 5 
0 1 11 4 
1 0 8 7 
0 0 7 9 
0 0 10 6 
2 1 9 4 
1 1 9 5 
2 0 6 8 
2 0 9 5 
4 0 4 8 
2 0 8 6 
2 0 9 5 
1 1 8 6 
1 0 7 8 
0 0 6 10 
1 2 4 9 
0 0 6 10 
1 1 7 7 
1 0 8 7 
1 2 7 6 
2 0 9 5 
1 0 7 8 
1 1 7 7 
1 0 11 4 
1 0 8 7 
2 0 7 7 
0 1 11 4 
1 0 11 4 
0 0 7 9 
2 1 9 4 
2 0 9 5 
1 0 10 5 
2 1 7 6 
1 0 7 8 
0 0 11 5 
0 0 10 6 
0 0 11 5 
1 1 6 8 
1 0 10 5 
1 0 10 5 
1 0 10 5 
1 1 9 5 
1 1 6 8 
1 1 9 5 
1 0 6 9 
3 0 8 5 
2 0 9 5 
2 2 8 4 
1 0 11 4 
1 0 9 6 
1 0 7 8 
2 0 7 7 
2 2 5 7 
2 0 7 7 
1 0 6 9 
1 0 10 5 
2 0 10 4 
1 0 7 8 
3 0 8 5 
3 0 6 7 
1 0 8 7 
1 0 10 5 
1 0 11 4 
2 0 8 6 
2 1 7 6 
2 0 9 5 
1 1 10 4 
0 0 9 7 
1 1 8 6 
2 0 9 5 
2 2 8 4 
2 0 4 10 
0 0 10 6 
2 0 5 9 
2 1 7 6 
2 0 6 8 
0 2 8 6 
2 0 8 6 
1 0 9 6 
2 1 9 4 
1 0 7 8 
1 0 7 8 
1 1 8 6 
1 0 7 8 
4 0 8 4 
1 0 7 8 
1 0 10 5 
2 2 5 7 
1 0 10 5 
1 0 10 5 
1 0 8 7 
1 0 7 8 
4 0 5 7 
1 0 7 8 
0 0 10 6 
1 1 9 5 
2 0 6 8 
2 0 7 7 
2 0 9 5 
4 0 4 8 
2 0 8 6 
1 0 10 5 
1 1 8 6 
1 0 7 8 
1 2 4 9 
2 2 8 4 
2 0 10 4 
1 0 8 7 
0 0 6 10 
0 0 10 6 
1 0 8 7 
1 2 7 6 
1 0 7 8 
2 0 9 5 
1 0 11 4 
1 0 8 7 
1 0 7 8 
3 0 6 7 
0 0 10 6 
2 0 4 10 
4 0 8 4 
0 0 10 6 
2 0 5 9 
1 0 8 7 
2 0 6 8 
0 2 8 6 
2 0 8 6 
1 0 10 5 
4 0 5 7 
1 0 7 8 
1 0 7 8 
1 0 11 4 
2 0 6 8 
0 0 6 10 
1 0 7 8 
4 0 8 4 
4 0 8 4 
1 1 10 4 
1 0 7 8 
1 0 10 5 
1 0 10 5 
1 0 8 7 
0 0 9 7 
1 0 7 8 
0 0 10 6 
1 1 9 5 
2 0 9 5 
2 0 9 5 
4 0 4 8 
2 0 8 6 
2 0 4 10 
1 0 7 8 
1 2 4 9 
0 0 10 6 
1 0 8 7 
1 2 7 6 
2 0 9 5 
2 0 5 9 
1 0 11 4 
0 0 10 6 
2 0 6 8 
0 1 11 4 
2 1 9 4 
1 0 7 8 
2 0 9 5 
1 1 8 6 
0 2 8 6 
1 0 7 8 
0 0 6 10 
1 0 7 8 
0 0 11 5 
2 0 8 6 
1 0 10 5 
2 0 7 7 
1 0 10 5 
2 0 6 8 
1 1 6 8 
4 0 5 7 
1 1 9 5 
1 0 6 9 
1 0 7 8 
2 0 9 5 
2 1 7 6 
2 1 7 6 
1 0 11 4 
4 0 8 4 
1 0 9 6 
1 1 8 6 
2 2 5 7 
1 0 7 8 
1 0 7 8 
2 0 7 7 
1 0 10 5 
1 0 10 5 
2 0 10 4 
1 0 7 8 
3 0 8 5 
3 0 6 7 
1 0 8 7 
1 0 10 5 
2 2 8 4 
1 0 10 5 
1 1 10 4 
0 0 9 7 
2 0 9 5 
1 0 8 7 
2 0 4 10 
0 0 10 6 
1 0 7 8 
2 0 5 9 
2 0 6 8 
2 0 8 6 
4 0 5 7 
1 0 11 4 
1 0 7 8 
2 0 6 8 
1 0 7 8 
4 0 8 4 
1 0 7 8 
1 0 10 5 
1 1 8 6 
1 0 10 5 
0 0 10 6 
1 0 8 7 
1 0 11 4 
0 0 10 6 
0 2 8 6 
3 0 8 5 
2 0 9 5 
1 0 7 8 
4 0 4 8 
2 0 8 6 
1 1 8 6 
1 0 7 8 
1 2 4 9 
1 0 10 5 
0 0 6 10 
2 2 5 7 
1 0 11 4 
1 0 8 7 
1 2 7 6 
2 0 10 4 
2 0 9 5 
1 0 7 8 
1 0 7 8 
1 0 11 4 
1 0 8 7 
1 0 7 8 
0 0 10 6 
1 1 9 5 
2 0 7 7 
2 1 7 6 
2 0 9 5 
3 0 6 7 
2 1 7 6 
1 0 7 8 
1 0 10 5 
1 0 11 4 
0 0 11 5 
1 0 8 7 
1 0 10 5 
1 0 10 5 
1 0 10 5 
1 1 6 8 
0 1 11 4 
1 1 9 5 
1 0 6 9 
3 0 8 5 
1 0 11 4 
2 0 9 5 
2 2 8 4 
2 1 7 6 
1 1 10 4 
1 0 9 6 
1 1 8 6 
2 2 5 7 
2 0 10 4 
2 1 7 6 
1 0 8 7 
1 2 7 6 
1 0 8 7 
1 0 10 5 
1 0 8 7 
2 0 6 8 
1 0 10 5 
2 0 7 7 
1 0 8 7 
1 1 9 5 
1 0 10 5 
2 0 7 7 
3 0 6 7 
1 0 7 8 
2 0 7 7 
1 1 9 5 
1 0 10 5 
2 0 10 4 
1 0 7 8 
3 0 6 7 
1 0 8 7 
1 0 10 5 
1 0 11 4 
1 1 10 4 
0 0 9 7 
2 0 9 5 
1 0 6 9 
2 0 9 5 
2 0 4 10 
0 0 10 6 
2 0 5 9 
2 0 4 10 
0 2 8 6 
0 2 8 6 
2 0 8 6 
4 0 5 7 
0 0 10 6 
1 0 7 8 
1 0 7 8 
2 0 6 8 
2 0 5 9 
1 0 7 8 
1 0 7 8 
1 2 4 9 
4 0 8 4 
1 0 7 8 
1 0 10 5 
1 0 10 5 
1 0 8 7 
1 0 7 8 
2 0 8 6 
4 0 8 4 
2 0 9 5 
0 0 10 6 
1 1 9 5 
2 0 9 5 
4 0 5 7 
4 0 4 8 
2 0 8 6 
1 2 7 6 
1 0 7 8 
3 0 6 7 
2 0 9 5 
1 0 11 4 
1 0 8 7 
1 0 11 4 
1 0 7 8 
0 0 10 6 
0 1 11 4 
2 1 9 4 
2 0 6 8 
2 0 9 5 
2 1 7 6 
1 0 7 8 
1 0 7 8 
2 1 9 4 
1 0 11 4 
0 0 11 5 
1 0 10 5 
4 0 8 4 
2 0 7 7 
1 0 10 5 
1 1 6 8 
1 0 7 8 
1 1 9 5 
1 0 6 9 
0 1 11 4 
3 0 8 5 
1 0 10 5 
2 2 8 4 
2 1 7 6 
1 0 9 6 
1 1 8 6 
1 0 10 5 
2 2 5 7 
1 0 7 8 
1 0 8 7 
2 0 7 7 
1 0 7 8 
1 0 10 5 
2 0 10 4 
1 0 7 8 
1 0 7 8 
3 0 6 7 
1 0 8 7 
1 0 10 5 
0 0 10 6 
1 1 10 4 
0 0 9 7 
1 1 9 5 
0 0 10 6 
2 0 4 10 
0 0 10 6 
0 0 11 5 
2 0 5 9 
1 0 7 8 
2 0 9 5 
2 0 6 8 
1 0 11 4 
0 2 8 6 
2 0 8 6 
4 0 4 8 
2 0 9 5 
2 0 5 9 
4 0 5 7 
1 0 7 8 
1 0 7 8 
2 0 8 6 
2 0 6 8 
1 0 7 8 
1 0 7 8 
1 0 10 5 
1 2 7 6 
1 0 10 5 
1 0 7 8 
1 0 8 7 
1 0 7 8 
1 0 7 8 
1 0 8 7 
2 0 8 6 
0 0 10 6 
1 1 9 5 
2 0 9 5 
1 2 4 9 
4 0 4 8 
2 0 8 6 
1 2 7 6 
0 0 6 10 
1 0 7 8 
1 2 4 9 
0 0 6 10 
1 0 8 7 
1 2 7 6 
2 0 9 5 
1 2 7 6 
4 0 4 8 
2 0 9 5 
1 0 11 4 
1 0 8 7 
1 0 8 7 
0 0 10 6 
2 0 9 5 
2 0 8 6 
0 1 11 4 
2 0 9 5 
2 1 9 4 
2 0 9 5 
1 0 11 4 
2 1 7 6 
1 0 7 8 
0 1 11 4 
1 0 11 4 
1 0 8 7 
0 0 11 5 
1 0 7 8 
1 0 10 5 
2 0 7 7 
0 0 10 6 
1 0 10 5 
1 1 6 8 
1 1 9 5 
2 0 4 10 
0 1 11 4 
1 0 6 9 
3 0 8 5 
2 0 9 5 
2 1 9 4 
2 3 7 4 
2 1 7 6 
1 0 9 6 
2 0 9 5 
1 1 8 6 
1 0 10 5 
2 2 5 7 
1 0 7 8 
2 1 7 6 
2 1 7 6 
2 0 7 7 
1 0 10 5 
2 0 10 4 
1 0 7 8 
1 0 7 8 
3 0 6 7 
2 0 7 7 
1 0 8 7 
1 0 10 5 
1 0 11 4 
1 0 10 5 
1 0 11 4 
1 0 6 9 
1 1 10 4 
0 0 11 5 
0 0 9 7 
2 0 9 5 
1 1 8 6 
2 1 9 4 
1 0 7 8 
1 0 7 8 
2 1 9 4 
1 0 10 5 
0 0 9 7 
2 0 4 10 
0 1 11 4 
2 0 9 5 
3 0 8 5 
2 0 6 8 
0 0 10 6 
4 0 8 4 
2 0 9 5 
1 0 8 7 
1 1 9 5 
0 0 11 5 
2 1 9 4 
1 0 11 4 
1 0 10 5 
4 0 4 8 
1 0 11 4 
2 0 8 6 
2 0 9 5 
2 1 7 6 
2 0 6 8 
3 0 6 7 
2 0 4 10 
1 0 7 8 
1 0 8 7 
2 1 9 4 
2 0 7 7 
1 1 6 8 
2 0 8 6 
4 0 5 7 
0 0 11 5 
1 0 7 8 
1 2 7 6 
1 0 8 7 
1 1 6 8 
2 0 4 10 
3 0 8 5 
1 0 7 8 
2 0 9 5 
2 3 7 4 
2 3 7 4 
1 2 7 6 
2 0 5 9 
1 2 7 6 
2 0 6 8 
2 0 5 9 
1 0 7 8 
2 0 8 6 
2 0 7 7 
1 0 11 4 
2 0 5 9 
1 0 7 8 
2 0 9 5 
2 0 9 5 
1 0 10 5 
1 0 8 7 
1 2 7 6 
1 0 11 4 
2 1 7 6 
1 0 7 8 
1 0 9 6 
1 1 10 4 
1 1 9 5 
1 2 4 9 
1 2 4 9 
1 0 7 8 
1 0 11 4 
1 0 11 4 
1 0 10 5 
1 0 8 7 
2 2 5 7 
0 0 10 6 
1 1 6 8 
1 0 7 8 
0 0 9 7 
3 0 8 5 
0 0 11 5 
2 0 7 7 
1 1 6 8 
2 0 6 8 
2 0 10 4 
2 0 7 7 
2 3 7 4 
2 1 7 6 
1 0 7 8 
2 2 5 7 
1 0 11 4 
1 0 10 5 
1 1 9 5 
0 0 9 7 
1 0 10 5 
2 0 9 5 
1 0 7 8 
1 0 7 8 
1 2 7 6 
2 0 8 6 
2 1 9 4 
1 0 7 8 
2 0 10 4 
1 0 7 8 
1 0 10 5 
2 0 6 8 
0 2 8 6 
1 0 8 7 
4 0 5 7 
1 0 7 8 
4 0 8 4 
2 0 9 5 
2 0 7 7 
1 0 10 5 
1 0 11 4 
1 0 7 8 
2 2 5 7 
1 1 9 5 
1 0 7 8 
0 0 9 7 
4 0 8 4 
4 0 4 8 
1 0 7 8 
2 1 7 6 
0 0 10 6 
1 2 4 9 
0 0 6 10 
0 0 9 7 
1 0 8 7 
2 0 7 7 
2 0 8 6 
1 2 7 6 
1 0 7 8 
1 0 7 8 
0 1 11 4 
2 1 9 4 
0 1 11 4 
1 1 6 8 
2 0 10 4 
0 0 10 6 
2 0 4 10 
4 0 8 4 
2 0 4 10 
1 0 10 5 
1 0 6 9 
1 0 10 5 
1 2 7 6 
1 0 7 8 
1 0 10 5 
2 0 7 7 
2 1 7 6 
1 0 10 5 
1 1 6 8 
1 1 9 5 
1 0 10 5 
1 0 9 6 
2 0 9 5 
3 0 6 7 
1 0 7 8 
1 0 8 7 
1 0 7 8 
2 0 6 8 
1 0 7 8 
1 0 10 5 
2 0 5 9 
2 2 5 7 
1 0 7 8 
1 0 7 8 
1 0 7 8 
2 1 9 4 
1 0 11 4 
2 0 5 9 
1 1 9 5 
4 0 5 7 
0 0 10 6 
2 0 8 6 
1 0 6 9 
1 1 9 5 
2 0 6 8 
2 0 9 5 
2 0 9 5 
1 0 7 8 
1 0 10 5 
1 0 8 7 
2 1 7 6 
0 2 8 6 
2 0 9 5 
1 0 8 7 
1 0 9 6 
1 0 7 8 
1 0 7 8 
2 0 5 9 
1 1 8 6 
2 0 9 5 
1 0 10 5 
2 0 7 7 
1 0 10 5 
2 0 7 7 
2 0 4 10 
2 0 10 4 
0 0 9 7 
2 1 7 6 
1 0 10 5 
0 0 10 6 
2 0 9 5 
3 0 8 5 
0 2 8 6 
0 2 8 6 
1 0 10 5 
1 0 7 8 
1 1 9 5 
1 0 8 7 
2 0 8 6 
0 0 10 6 
1 0 6 9 
1 1 6 8 
1 0 10 5 
0 0 11 5 
1 0 8 7 
1 0 7 8 
1 0 9 6 
1 0 11 4 
2 0 9 5 
4 0 5 7 
2 0 10 4 
2 2 5 7 
3 0 6 7 
1 0 7 8 
4 0 5 7 
0 1 11 4 
1 0 10 5 
1 0 9 6 
2 0 9 5 
1 0 10 5 
2 0 7 7 
1 0 10 5 
2 0 9 5 
4 0 5 7 
2 0 9 5 
1 0 8 7 
2 0 8 6 
0 0 10 6 
1 1 9 5 
2 0 10 4 
2 0 9 5 
1 0 10 5 
2 2 5 7 
1 1 10 4 
1 0 7 8 
1 0 7 8 
0 0 10 6 
2 2 5 7 
1 0 10 5 
0 0 6 10 
0 0 10 6 
4 0 8 4 
1 0 8 7 
1 0 7 8 
0 1 11 4 
1 0 7 8 
2 0 8 6 
3 0 8 5 
1 0 8 7 
1 1 9 5 
1 0 7 8 
4 0 4 8 
2 0 6 8 
1 0 8 7 
2 1 7 6 
0 0 10 6 
2 0 9 5 
1 0 7 8 
0 0 10 6 
1 1 9 5 
2 0 7 7 
2 0 9 5 
0 0 11 5 
1 1 6 8 
0 1 11 4 
2 0 9 5 
1 0 11 4 
2 0 6 8 
1 0 8 7 
4 0 4 8 
4 0 5 7 
1 0 10 5 
2 0 9 5 
1 2 7 6 
2 1 7 6 
2 0 7 7 
1 0 11 4 
1 0 11 4 
1 0 11 4 
1 1 9 5 
0 1 11 4 
1 0 7 8 
2 1 7 6 
1 0 9 6 
0 0 9 7 
0 2 8 6 
2 0 8 6 
0 1 11 4 
4 0 4 8 
2 0 9 5 
2 0 7 7 
1 0 9 6 
0 0 10 6 
3 0 6 7 
1 0 8 7 
2 0 9 5 
0 0 6 10 
1 0 8 7 
4 0 4 8 
2 0 9 5 
1 0 7 8 
1 0 11 4 
1 0 8 7 
2 0 9 5 
2 3 7 4 
2 0 5 9 
0 0 9 7 
2 0 6 8 
1 0 7 8 
2 0 8 6 
4 0 5 7 
4 0 8 4 
2 0 9 5 
2 3 7 4 
1 0 7 8 
1 0 11 4 
0 1 11 4 
0 1 11 4 
2 0 8 6 
3 0 8 5 
2 0 9 5 
2 0 9 5 
2 1 7 6 
2 0 9 5 
1 0 10 5 
2 0 10 4 
2 0 7 7 
2 0 9 5 
1 0 7 8 
2 1 7 6 
0 2 8 6 
0 0 10 6 
2 2 5 7 
2 0 4 10 
1 0 7 8 
2 0 5 9 
4 0 5 7 
2 0 9 5 
4 0 8 4 
3 0 8 5 
2 0 9 5 
1 2 4 9 
1 1 8 6 
1 0 11 4 
0 0 9 7 
2 2 5 7 
2 1 9 4 
1 0 7 8 
1 0 8 7 
1 0 7 8 
1 0 11 4 
1 0 7 8 
2 1 7 6 
2 0 5 9 
1 0 9 6 
1 0 10 5 
2 0 10 4 
4 0 8 4 
1 0 11 4 
1 0 7 8 
1 0 8 7 
1 0 10 5 
2 0 8 6 
1 0 10 5 
2 0 7 7 
0 0 10 6 
0 0 10 6 
2 0 6 8 
1 0 11 4 
1 2 7 6 
2 0 8 6 
2 0 4 10 
1 0 7 8 
1 0 7 8 
1 0 7 8 
1 2 7 6 
2 1 9 4 
1 1 6 8 
0 0 9 7 
2 0 6 8 
2 0 9 5 
1 0 8 7 
1 0 11 4 
1 1 8 6 
2 0 6 8 
1 0 7 8 
2 2 5 7 
4 0 8 4 
1 2 7 6 
1 0 8 7 
0 0 10 6 
1 0 11 4 
1 0 8 7 
1 1 9 5 
2 1 7 6 
2 0 6 8 
2 0 4 10 
1 0 10 5 
1 0 8 7 
1 0 6 9 
0 1 11 4 
2 1 7 6 
1 0 11 4 
1 0 11 4 
0 0 9 7 
0 0 10 6 
1 0 10 5 
2 0 9 5 
2 0 4 10 
1 1 9 5 
0 0 11 5 
1 1 6 8 
1 0 11 4 
0 1 11 4 
0 2 8 6 
2 1 9 4 
1 0 7 8 
1 0 7 8 
0 0 10 6 
2 0 9 5 
1 0 7 8 
2 3 7 4 
2 3 7 4 
2 0 5 9 
0 2 8 6 
1 1 6 8 
1 0 7 8 
4 0 8 4 
1 0 8 7 
1 0 7 8 
1 0 10 5 
1 0 7 8 
1 0 10 5 
1 0 6 9 
2 0 9 5 
2 1 7 6 
1 0 10 5 
1 1 9 5 
2 2 5 7 
2 0 5 9 
1 0 7 8 
1 0 10 5 
2 0 8 6 
0 0 6 10 
1 0 11 4 
1 0 7 8 
4 0 5 7 
1 0 10 5 
1 0 6 9 
2 3 7 4 
1 1 8 6 
2 0 7 7 
1 1 10 4 
1 0 7 8 
0 2 8 6 
1 1 6 8 
4 0 8 4 
1 0 10 5 
1 0 8 7 
2 0 8 6 
0 0 6 10 
2 0 9 5 
1 0 7 8 
1 0 6 9 
1 0 7 8 
1 0 7 8 
1 0 7 8 
2 0 5 9 
4 0 5 7 
0 0 10 6 
0 0 11 5 
1 0 10 5 
1 0 8 7 
2 0 4 10 
1 0 9 6 
3 0 6 7 
0 2 8 6 
1 0 11 4 
1 0 7 8 
2 0 4 10 
0 2 8 6 
1 0 7 8 
1 1 6 8 
2 0 9 5 
1 0 10 5 
1 0 8 7 
0 0 10 6 
1 0 11 4 
4 0 4 8 
2 0 10 4 
1 2 4 9 
1 2 7 6 
4 0 8 4 
2 0 9 5 
1 0 10 5 
1 0 11 4 
0 0 10 6 
2 0 8 6 
1 2 4 9 
0 0 6 10 
1 0 6 9 
2 3 7 4 
0 1 11 4 
1 0 9 6 
2 1 7 6 
1 0 10 5 
1 0 10 5 
1 0 7 8 
1 1 9 5 
2 1 7 6 
1 0 10 5 
3 0 6 7 
0 0 9 7 
1 0 7 8 
2 0 7 7 
1 1 9 5 
1 0 10 5 
1 0 10 5 
1 1 8 6 
1 0 7 8 
1 0 10 5 
1 0 10 5 
1 0 6 9 
1 0 8 7 
0 0 11 5 
1 2 7 6 
0 0 10 6 
1 0 7 8 
1 0 7 8 
1 0 10 5 
0 0 6 10 
0 1 11 4 
1 1 8 6 
1 0 10 5 
2 3 7 4 
1 1 8 6 
4 0 4 8 
2 0 10 4 
1 0 7 8 
1 0 8 7 
1 2 7 6 
1 1 10 4 
1 0 8 7 
2 0 9 5 
1 0 11 4 
3 0 8 5 
2 0 7 7 
1 2 7 6 
2 0 9 5 
2 0 9 5 
4 0 5 7 
1 1 6 8 
2 0 6 8 
1 0 7 8 
3 0 6 7 
1 0 11 4 
1 0 8 7 
0 1 11 4 
2 0 9 5 
2 0 4 10 
0 2 8 6 
1 0 11 4 
1 1 6 8 
2 0 7 7 
1 0 7 8 
1 0 6 9 
1 0 7 8 
1 0 7 8 
1 1 10 4 
2 0 4 10 
0 2 8 6 
1 1 6 8 
1 0 10 5 
1 2 7 6 
1 2 4 9 
1 2 7 6 
1 0 8 7 
2 0 5 9 
3 1 8 4 
1 0 7 8 
1 0 6 9 
1 2 7 6 
0 0 6 10 
1 0 11 4 
0 1 11 4 
2 1 7 6 
2 0 8 6 
1 0 10 5 
1 0 7 8 
1 0 9 6 
2 0 9 5 
4 0 4 8 
2 0 7 7 
1 2 4 9 
1 0 7 8 
1 2 7 6 
1 0 11 4 
1 0 8 7 
2 0 9 5 
2 0 6 8 
0 0 11 5 
4 0 8 4 
2 0 9 5 
1 0 7 8 
1 0 7 8 
0 0 6 10 
2 0 4 10 
2 0 6 8 
1 0 7 8 
4 0 8 4 
1 0 10 5 
1 0 10 5 
1 0 6 9 
1 1 8 6 
2 0 8 6 
1 2 4 9 
1 2 7 6 
2 0 6 8 
2 0 6 8 
2 0 9 5 
1 1 9 5 
1 0 7 8 
1 0 7 8 
0 0 10 6 
2 0 9 5 
0 2 8 6 
1 0 11 4 
1 1 6 8 
2 0 7 7 
1 0 6 9 
1 0 10 5 
2 3 7 4 
0 0 10 6 
1 1 8 6 
2 0 8 6 
1 0 10 5 
1 2 4 9 
3 0 6 7 
1 2 7 6 
0 0 10 6 
1 0 7 8 
2 0 6 8 
1 1 6 8 
2 0 6 8 
1 0 8 7 
1 1 9 5 
0 1 11 4 
2 1 7 6 
1 0 10 5 
2 3 7 4 
4 0 8 4 
1 0 8 7 
1 1 8 6 
1 1 9 5 
1 2 7 6 
3 0 6 7 
2 0 9 5 
1 0 11 4 
0 0 10 6 
2 0 9 5 
2 1 7 6 
2 0 5 9 
0 0 11 5 
2 0 8 6 
1 0 10 5 
2 0 6 8 
1 0 10 5 
1 0 9 6 
1 0 7 8 
3 1 8 4 
2 3 7 4 
1 0 7 8 
1 0 8 7 
1 1 10 4 
1 0 8 7 
1 0 11 4 
2 0 9 5 
0 2 8 6 
1 0 11 4 
1 1 6 8 
2 0 7 7 
1 0 7 8 
1 0 6 9 
1 0 10 5 
2 3 7 4 
0 0 10 6 
4 0 4 8 
0 0 10 6 
1 2 4 9 
1 2 7 6 
1 1 6 8 
0 0 10 6 
2 0 9 5 
1 0 9 6 
1 0 11 4 
2 0 7 7 
1 0 8 7 
1 0 10 5 
1 1 10 4 
0 0 10 6 
1 0 11 4 
2 1 7 6 
1 1 9 5 
2 0 9 5 
1 2 4 9 
1 2 7 6 
0 0 11 5 
1 0 10 5 
4 0 8 4 
3 0 8 5 
1 0 7 8 
1 1 8 6 
2 0 9 5 
2 0 7 7 
1 2 7 6 
0 0 6 10 
1 0 11 4 
2 0 9 5 
2 0 9 5 
0 0 10 6 
2 0 5 9 
2 1 7 6 
4 0 5 7 
2 0 6 8 
0 0 11 5 
1 0 10 5 
2 0 9 5 
1 0 10 5 
1 0 8 7 
2 0 9 5 
2 0 5 9 
1 0 7 8 
1 0 10 5 
1 1 9 5 
2 1 7 6 
1 0 7 8 
1 1 8 6 
1 0 7 8 
2 0 9 5 
1 1 10 4 
0 2 8 6 
1 1 6 8 
0 0 11 5 
1 1 9 5 
1 0 8 7 
1 0 11 4 
1 0 8 7 
2 0 6 8 
3 1 8 4 
1 0 7 8 
2 0 7 7 
2 0 7 7 
1 1 9 5 
4 0 4 8 
2 0 9 5 
1 2 4 9 
3 1 8 4 
1 0 11 4 
2 0 7 7 
1 1 9 5 
1 0 7 8 
1 0 10 5 
1 1 8 6 
2 0 7 7 
1 0 8 7 
1 2 7 6 
1 1 10 4 
2 0 4 10 
2 0 6 8 
1 0 7 8 
3 1 8 4 
1 0 7 8 
1 0 10 5 
1 0 6 9 
2 1 7 6 
3 1 8 4 
1 0 7 8 
1 0 7 8 
4 0 8 4 
1 0 7 8 
2 0 10 4 
1 0 11 4 
2 0 9 5 
2 0 9 5 
2 0 5 9 
1 1 8 6 
4 0 4 8 
1 0 8 7 
1 0 10 5 
1 1 9 5 
1 1 8 6 
1 2 7 6 
0 0 6 10 
2 0 9 5 
0 1 11 4 
2 1 7 6 
0 0 11 5 
2 0 8 6 
3 0 8 5 
2 1 7 6 
1 0 7 8 
2 0 10 4 
1 0 8 7 
1 0 8 7 
1 1 10 4 
2 0 4 10 
2 0 6 8 
1 0 7 8 
2 1 6 7 
1 0 7 8 
1 0 10 5 
2 0 8 6 
2 0 10 4 
1 2 4 9 
2 0 9 5 
2 0 9 5 
0 0 10 6 
2 0 9 5 
0 0 11 5 
1 0 10 5 
1 0 6 9 
1 0 7 8 
1 0 10 5 
1 1 9 5 
1 2 4 9 
0 0 10 6 
1 2 7 6 
2 0 9 5 
2 0 7 7 
1 0 11 4 
2 1 6 7 
3 0 8 5 
2 0 7 7 
1 0 7 8 
4 0 4 8 
2 0 7 7 
2 1 7 6 
1 1 6 8 
2 2 5 7 
0 0 6 10 
2 0 10 4 
1 0 8 7 
1 1 10 4 
1 0 10 5 
2 0 4 10 
2 2 5 7 
1 0 7 8 
1 1 10 4 
1 0 7 8 
1 0 7 8 
1 0 10 5 
1 1 9 5 
2 0 9 5 
0 0 10 6 
4 0 4 8 
1 0 9 6 
1 2 4 9 
2 0 7 7 
2 0 9 5 
1 0 7 8 
0 0 10 6 
1 0 10 5 
2 0 9 5 
0 0 11 5 
1 0 7 8 
1 0 6 9 
2 2 5 7 
2 0 10 4 
0 0 6 10 
1 0 11 4 
2 0 4 10 
1 0 7 8 
0 0 10 6 
0 0 6 10 
1 0 11 4 
1 0 7 8 
2 0 5 9 
2 0 9 5 
1 0 7 8 
2 0 7 7 
2 0 7 7 
1 0 8 7 
1 0 7 8 
2 0 9 5 
2 0 5 9 
4 0 5 7 
2 0 6 8 
2 0 7 7 
2 0 8 6 
2 0 9 5 
0 2 8 6 
0 0 11 5 
1 0 9 6 
2 0 9 5 
1 0 8 7 
2 0 4 10 
1 0 8 7 
0 2 8 6 
3 1 8 4 
1 0 7 8 
2 0 7 7 
1 0 6 9 
2 3 7 4 
1 2 7 6 
2 2 5 7 
3 0 6 7 
0 0 9 7 
2 0 5 9 
2 0 8 6 
4 0 5 7 
0 0 11 5 
1 0 10 5 
1 0 9 6 
1 0 7 8 
1 0 7 8 
1 2 4 9 
1 2 7 6 
0 0 10 6 
0 2 8 6 
2 0 7 7 
2 0 7 7 
1 0 7 8 
1 0 11 4 
2 1 6 7 
1 0 11 4 
2 0 9 5 
2 0 5 9 
1 1 9 5 
1 0 8 7 
0 0 10 6 
2 0 5 9 
2 0 8 6 
1 0 7 8 
1 0 10 5 
1 0 7 8 
4 0 4 8 
1 0 7 8 
2 0 9 5 
2 0 9 5 
1 0 11 4 
1 2 7 6 
1 0 6 9 
1 0 8 7 
2 3 7 4 
0 1 11 4 
1 1 8 6 
0 0 11 5 
4 0 5 7 
2 0 6 8 
2 0 7 7 
2 1 7 6 
2 1 7 6 
2 0 5 9 
4 0 5 7 
2 0 7 7 
1 1 9 5 
1 0 10 5 
2 0 9 5 
4 0 4 8 
1 0 10 5 
Heartbeat CPU 1 instructions: 10000001 cycles: 3763985 heartbeat IPC: 2.65676 cumulative IPC: 2.65676 (Simulation time: 0 hr 1 min 42 sec) 
1 0 7 8 
3 0 6 7 
1 1 10 4 
1 0 8 7 
2 0 4 10 
3 1 8 4 
0 2 8 6 
1 0 7 8 
2 0 7 7 
4 0 8 4 
1 1 9 5 
1 1 8 6 
2 0 6 8 
3 0 8 5 
1 0 10 5 
1 0 7 8 
2 0 8 6 
2 0 10 4 
0 0 9 7 
0 0 10 6 
2 0 8 6 
1 0 7 8 
4 0 8 4 
1 0 8 7 
3 0 8 5 
2 0 9 5 
1 0 7 8 
2 0 10 4 
1 0 8 7 
3 1 8 4 
2 0 7 7 
1 1 9 5 
2 3 7 4 
1 0 7 8 
1 1 8 6 
1 0 8 7 
2 0 7 7 
3 0 6 7 
3 1 8 4 
1 1 10 4 
1 0 7 8 
2 0 4 10 
1 1 9 5 
2 0 9 5 
1 0 10 5 
3 0 6 7 
1 0 11 4 
2 0 9 5 
2 0 5 9 
0 0 11 5 
1 0 7 8 
2 1 7 6 
0 0 6 10 
2 0 9 5 
0 2 8 6 
0 0 10 6 
1 0 10 5 
1 0 10 5 
1 0 7 8 
0 1 11 4 
2 0 9 5 
1 0 11 4 
2 0 7 7 
3 1 8 4 
1 1 9 5 
1 0 10 5 
2 0 9 5 
1 0 9 6 
1 0 7 8 
0 1 11 4 
2 0 9 5 
2 0 5 9 
2 0 8 6 
1 0 7 8 
1 0 7 8 
4 0 4 8 
1 0 10 5 
3 0 6 7 
1 2 4 9 
1 0 8 7 
2 1 7 6 
1 1 6 8 
3 0 8 5 
1 1 9 5 
1 0 8 7 
1 0 11 4 
3 1 8 4 
1 0 7 8 
1 0 10 5 
3 0 6 7 
2 0 4 10 
2 0 6 8 
0 2 8 6 
1 0 7 8 
2 1 6 7 
1 0 10 5 
1 0 7 8 
1 0 7 8 
2 0 9 5 
0 0 10 6 
1 2 7 6 
4 0 4 8 
2 0 9 5 
1 2 7 6 
0 0 10 6 
1 0 10 5 
2 0 7 7 
2 0 9 5 
0 1 11 4 
2 0 5 9 
1 1 9 5 
1 1 8 6 
4 0 4 8 
2 0 7 7 
1 2 4 9 
3 0 6 7 
1 2 7 6 
1 1 10 4 
2 1 7 6 
1 0 7 8 
1 1 6 8 
2 0 9 5 
1 0 9 6 
1 0 11 4 
1 0 11 4 
2 0 8 6 
1 0 6 9 
4 0 8 4 
2 0 10 4 
1 0 8 7 
1 1 10 4 
2 0 4 10 
1 0 10 5 
1 0 9 6 
0 0 10 6 
2 0 9 5 
0 0 10 6 
0 0 9 7 
2 0 9 5 
1 0 11 4 
2 0 7 7 
2 3 7 4 
1 1 9 5 
2 0 7 7 
2 2 5 7 
1 0 10 5 
3 0 6 7 
1 2 4 9 
2 0 4 10 
2 1 6 7 
2 0 6 8 
1 0 11 4 
0 1 11 4 
2 1 7 6 
0 0 11 5 
1 0 10 5 
1 0 10 5 
1 0 6 9 
2 4 6 4 
1 1 8 6 
2 0 7 7 
1 0 7 8 
1 0 10 5 
0 0 10 6 
1 0 8 7 
1 0 10 5 
1 1 9 5 
2 0 9 5 
1 0 9 6 
1 0 7 8 
1 2 7 6 
2 0 10 4 
1 0 10 5 
1 0 11 4 
2 0 9 5 
2 0 6 8 
4 0 5 7 
2 1 7 6 
2 0 6 8 
1 0 10 5 
3 0 6 7 
2 0 9 5 
1 2 4 9 
1 2 7 6 
2 0 6 8 
2 1 6 7 
1 0 7 8 
1 0 10 5 
1 1 9 5 
1 1 9 5 
2 0 9 5 
2 0 8 6 
1 1 8 6 
0 0 6 10 
1 0 10 5 
2 0 9 5 
1 0 10 5 
1 0 10 5 
0 0 10 6 
2 0 8 6 
4 0 8 4 
1 0 7 8 
1 0 7 8 
1 0 10 5 
0 0 9 7 
3 1 8 4 
1 0 7 8 
4 0 5 7 
2 0 6 8 
1 0 10 5 
1 1 9 5 
1 0 10 5 
2 0 9 5 
1 0 7 8 
2 0 9 5 
2 0 7 7 
2 1 6 7 
1 0 8 7 
1 0 8 7 
1 0 10 5 
2 2 5 7 
2 0 7 7 
1 0 10 5 
1 0 7 8 
1 0 7 8 
1 2 7 6 
0 0 10 6 
2 0 9 5 
1 0 11 4 
2 2 5 7 
1 1 6 8 
1 0 8 7 
1 0 7 8 
2 1 7 6 
1 0 10 5 
1 1 6 8 
2 0 9 5 
1 2 7 6 
2 1 7 6 
1 0 8 7 
1 0 11 4 
1 1 9 5 
2 0 9 5 
1 0 7 8 
1 0 8 7 
1 0 6 9 
1 0 11 4 
3 1 8 4 
2 0 8 6 
1 0 7 8 
4 0 8 4 
1 1 6 8 
1 0 8 7 
2 0 9 5 
1 0 9 6 
3 0 6 7 
1 0 11 4 
3 1 8 4 
0 0 10 6 
1 0 7 8 
1 0 10 5 
1 1 9 5 
2 0 9 5 
1 1 8 6 
0 0 10 6 
1 0 10 5 
2 0 8 6 
0 0 6 10 
2 1 7 6 
1 0 10 5 
1 0 7 8 
1 0 7 8 
1 0 10 5 
1 0 8 7 
0 0 9 7 
2 0 5 9 
0 0 10 6 
4 0 5 7 
2 0 6 8 
2 0 7 7 
1 1 9 5 
2 0 8 6 
1 2 4 9 
1 1 9 5 
0 0 10 6 
2 0 9 5 
2 0 9 5 
2 0 6 8 
4 0 5 7 
2 0 6 8 
1 0 10 5 
2 1 7 6 
1 0 7 8 
2 0 10 4 
1 0 10 5 
2 0 9 5 
0 0 9 7 
0 1 11 4 
2 0 5 9 
2 1 7 6 
0 0 11 5 
1 1 9 5 
2 0 9 5 
1 1 8 6 
2 0 4 10 
2 1 7 6 
1 1 9 5 
1 0 8 7 
1 1 9 5 
1 1 10 4 
1 0 8 7 
1 0 11 4 
0 1 11 4 
2 1 6 7 
1 0 11 4 
1 1 9 5 
2 2 5 7 
1 0 10 5 
1 0 8 7 
2 0 9 5 
0 0 10 6 
2 0 5 9 
2 0 8 6 
2 0 6 8 
1 0 10 5 
4 0 5 7 
1 0 7 8 
2 0 6 8 
4 0 4 8 
1 0 10 5 
1 0 7 8 
1 0 7 8 
1 0 8 7 
1 0 8 7 
1 0 7 8 
1 0 8 7 
1 0 8 7 
4 0 8 4 
1 1 10 4 
0 1 11 4 
1 0 7 8 
4 0 5 7 
1 0 10 5 
1 1 6 8 
1 0 7 8 
2 0 9 5 
1 0 10 5 
0 0 10 6 
1 0 9 6 
1 2 4 9 
1 0 7 8 
2 0 9 5 
1 0 10 5 
0 0 10 6 
2 0 9 5 
2 0 9 5 
0 0 11 5 
1 1 6 8 
2 0 7 7 
2 0 9 5 
1 0 9 6 
1 0 7 8 
1 0 7 8 
1 0 8 7 
1 0 10 5 
0 0 9 7 
0 0 10 6 
0 2 8 6 
1 0 6 9 
1 0 10 5 
0 0 6 10 
1 0 7 8 
2 0 9 5 
1 0 10 5 
0 0 10 6 
4 0 4 8 
3 0 6 7 
1 2 7 6 
1 0 8 7 
1 0 11 4 
2 0 9 5 
2 0 6 8 
1 0 11 4 
4 0 5 7 
2 0 7 7 
2 0 6 8 
1 0 6 9 
1 0 10 5 
1 0 7 8 
2 2 5 7 
2 0 9 5 
1 0 10 5 
0 0 10 6 
2 1 7 6 
1 0 7 8 
2 0 8 6 
3 0 6 7 
0 0 6 10 
1 0 11 4 
2 0 9 5 
1 0 7 8 
1 0 10 5 
2 0 9 5 
1 1 8 6 
1 0 10 5 
1 1 9 5 
1 0 7 8 
1 0 7 8 
1 0 8 7 
1 0 8 7 
1 0 11 4 
3 1 8 4 
1 0 11 4 
1 0 7 8 
2 0 7 7 
1 0 6 9 
1 0 9 6 
1 0 10 5 
1 0 7 8 
1 0 7 8 
2 0 10 4 
1 0 10 5 
0 0 9 7 
0 0 10 6 
0 0 10 6 
2 0 8 6 
1 0 7 8 
2 0 9 5 
3 0 6 7 
1 0 10 5 
2 4 6 4 
1 1 9 5 
2 0 8 6 
2 2 5 7 
1 2 4 9 
1 0 10 5 
1 0 11 4 
1 2 7 6 
1 0 8 7 
2 0 6 8 
3 1 8 4 
2 1 6 7 
1 0 11 4 
2 0 7 7 
0 0 6 10 
1 0 8 7 
0 0 9 7 
0 1 11 4 
0 0 10 6 
2 1 7 6 
2 0 8 6 
2 0 6 8 
1 1 6 8 
2 0 7 7 
3 0 8 5 
1 0 8 7 
2 1 7 6 
2 0 7 7 
1 0 7 8 
2 0 6 8 
1 0 10 5 
1 0 7 8 
0 0 6 10 
1 1 8 6 
1 0 11 4 
1 0 10 5 
0 0 9 7 
2 0 5 9 
2 4 6 4 
2 0 9 5 
1 2 7 6 
0 1 11 4 
1 0 10 5 
2 1 6 7 
1 1 6 8 
1 0 7 8 
3 0 8 5 
1 0 9 6 
1 0 7 8 
1 2 4 9 
1 0 11 4 
2 0 9 5 
2 0 5 9 
1 0 9 6 
2 0 8 6 
0 1 11 4 
2 1 7 6 
0 0 11 5 
1 1 9 5 
0 2 8 6 
0 0 10 6 
0 1 11 4 
2 1 7 6 
1 3 4 8 
3 0 8 5 
1 2 7 6 
1 0 10 5 
3 0 6 7 
2 0 9 5 
0 0 9 7 
1 0 11 4 
0 0 10 6 
0 2 8 6 
1 0 6 9 
2 4 6 4 
1 0 10 5 
3 0 6 7 
1 0 11 4 
2 0 9 5 
2 0 5 9 
4 0 5 7 
2 0 6 8 
2 0 7 7 
4 0 4 8 
1 0 7 8 
1 0 8 7 
3 1 8 4 
2 0 7 7 
1 1 9 5 
2 4 6 4 
1 0 7 8 
2 0 4 10 
2 0 6 8 
2 1 6 7 
4 0 8 4 
2 0 8 6 
4 0 8 4 
1 0 10 5 
1 0 8 7 
0 0 9 7 
2 0 8 6 
0 0 10 6 
2 0 6 8 
2 0 6 8 
1 1 8 6 
3 0 6 7 
1 0 8 7 
1 0 11 4 
1 0 11 4 
2 0 9 5 
3 1 8 4 
1 0 7 8 
1 0 10 5 
1 0 10 5 
1 1 9 5 
2 1 7 6 
1 2 7 6 
2 1 7 6 
0 0 11 5 
1 1 6 8 
1 0 10 5 
3 0 8 5 
1 0 11 4 
2 1 7 6 
1 0 10 5 
2 0 10 4 
2 0 9 5 
1 0 8 7 
0 0 9 7 
2 1 6 7 
2 0 7 7 
1 0 10 5 
1 0 11 4 
2 1 7 6 
1 0 10 5 
2 0 6 8 
2 0 7 7 
2 1 7 6 
1 0 7 8 
2 0 9 5 
1 0 7 8 
1 2 7 6 
1 2 7 6 
1 0 8 7 
2 1 6 7 
3 1 8 4 
1 0 11 4 
1 0 10 5 
1 1 6 8 
2 0 9 5 
1 1 8 6 
1 0 8 7 
3 1 8 4 
2 0 9 5 
1 1 8 6 
1 0 11 4 
1 3 4 8 
1 2 7 6 
0 0 10 6 
2 1 7 6 
0 0 11 5 
2 1 7 6 
1 0 7 8 
2 0 10 4 
0 0 6 10 
1 0 8 7 
0 0 9 7 
0 1 11 4 
0 0 10 6 
2 1 7 6 
1 0 7 8 
1 1 6 8 
4 0 8 4 
2 0 9 5 
1 1 8 6 
2 0 7 7 
1 0 7 8 
1 1 10 4 
1 0 7 8 
2 0 7 7 
1 0 8 7 
1 1 9 5 
2 1 7 6 
1 0 8 7 
1 0 11 4 
2 0 9 5 
2 0 6 8 
1 1 6 8 
1 0 7 8 
2 0 9 5 
4 0 4 8 
1 0 7 8 
0 0 9 7 
0 0 10 6 
2 0 8 6 
1 0 7 8 
1 0 6 9 
1 1 10 4 
2 1 7 6 
2 2 5 7 
0 0 10 6 
0 2 8 6 
1 0 10 5 
2 0 7 7 
1 0 8 7 
2 0 6 8 
1 0 7 8 
1 2 7 6 
2 0 10 4 
0 0 6 10 
1 0 7 8 
1 0 10 5 
1 1 9 5 
2 0 9 5 
1 0 9 6 
0 0 10 6 
0 2 8 6 
1 0 7 8 
4 0 8 4 
2 0 9 5 
1 0 7 8 
1 0 10 5 
1 2 7 6 
2 0 9 5 
1 1 6 8 
3 0 8 5 
1 0 9 6 
1 1 9 5 
2 0 7 7 
2 0 8 6 
1 0 7 8 
1 0 11 4 
2 0 9 5 
2 0 6 8 
1 0 7 8 
1 0 7 8 
2 0 7 7 
0 0 10 6 
2 2 5 7 
1 0 10 5 
1 0 8 7 
1 2 7 6 
0 0 10 6 
1 0 11 4 
1 0 8 7 
2 0 9 5 
2 4 6 4 
1 2 7 6 
1 0 10 5 
0 0 6 10 
3 0 6 7 
1 0 11 4 
1 1 10 4 
0 1 11 4 
2 0 4 10 
2 1 7 6 
1 0 10 5 
2 1 6 7 
1 1 6 8 
1 0 7 8 
1 0 9 6 
0 0 10 6 
1 2 7 6 
0 0 6 10 
1 0 10 5 
1 0 11 4 
0 1 11 4 
1 0 10 5 
1 1 6 8 
1 0 9 6 
4 0 4 8 
1 0 7 8 
1 0 7 8 
1 2 7 6 
1 0 11 4 
2 0 9 5 
2 0 6 8 
2 0 6 8 
2 0 9 5 
1 0 10 5 
1 0 8 7 
2 0 7 7 
4 0 8 4 
2 2 5 7 
0 0 6 10 
0 1 11 4 
2 1 7 6 
1 1 6 8 
2 0 9 5 
3 0 8 5 
4 0 8 4 
1 0 8 7 
2 1 6 7 
1 1 9 5 
1 0 7 8 
1 0 10 5 
0 0 9 7 
0 0 10 6 
2 0 8 6 
1 0 7 8 
2 0 9 5 
1 1 9 5 
1 3 4 8 
1 2 7 6 
1 0 8 7 
0 0 11 5 
0 0 10 6 
1 0 7 8 
1 0 8 7 
1 0 11 4 
1 0 7 8 
1 0 10 5 
4 0 5 7 
1 1 6 8 
3 0 8 5 
2 1 7 6 
2 2 5 7 
2 0 9 5 
0 0 9 7 
0 0 10 6 
0 2 8 6 
1 0 10 5 
1 0 7 8 
2 0 7 7 
1 0 8 7 
1 0 9 6 
2 1 6 7 
1 0 7 8 
1 0 7 8 
1 0 10 5 
2 0 9 5 
2 0 9 5 
2 0 5 9 
2 0 8 6 
1 0 10 5 
1 0 6 9 
2 0 7 7 
2 4 6 4 
1 0 8 7 
2 2 5 7 
1 1 9 5 
2 0 8 6 
1 3 4 8 
1 1 10 4 
1 2 7 6 
1 0 8 7 
2 1 6 7 
1 0 10 5 
1 3 4 8 
2 0 4 10 
0 0 10 6 
2 0 6 8 
2 0 9 5 
4 0 5 7 
0 0 11 5 
2 0 6 8 
1 0 7 8 
1 0 9 6 
2 0 9 5 
1 0 7 8 
2 0 10 4 
1 0 8 7 
1 0 11 4 
1 0 7 8 
4 0 5 7 
2 0 7 7 
1 0 7 8 
0 0 10 6 
1 0 8 7 
0 0 9 7 
0 0 10 6 
0 0 10 6 
1 0 7 8 
1 0 10 5 
2 0 7 7 
1 0 8 7 
2 0 9 5 
1 0 10 5 
1 0 7 8 
3 0 6 7 
1 0 8 7 
1 0 11 4 
2 0 9 5 
2 0 9 5 
2 0 5 9 
1 0 10 5 
2 1 7 6 
2 2 5 7 
2 0 9 5 
1 2 7 6 
1 0 8 7 
3 1 8 4 
1 0 7 8 
1 0 7 8 
0 2 8 6 
1 0 10 5 
2 1 6 7 
1 1 6 8 
1 0 7 8 
3 0 8 5 
2 1 6 7 
2 0 7 7 
1 0 10 5 
2 0 5 9 
2 0 8 6 
1 0 7 8 
2 1 7 6 
1 1 10 4 
2 0 9 5 
0 0 10 6 
2 0 9 5 
1 0 11 4 
1 0 7 8 
2 0 7 7 
1 0 10 5 
1 1 9 5 
0 0 10 6 
2 0 9 5 
4 0 4 8 
1 0 9 6 
1 0 7 8 
1 0 7 8 
1 0 8 7 
2 0 10 4 
1 1 10 4 
1 0 10 5 
1 0 8 7 
2 0 9 5 
1 0 7 8 
2 0 9 5 
1 2 7 6 
2 0 7 7 
1 1 9 5 
1 0 11 4 
2 0 8 6 
2 0 9 5 
1 0 7 8 
0 0 6 10 
1 0 11 4 
2 0 7 7 
2 0 9 5 
1 0 10 5 
0 0 6 10 
1 0 8 7 
0 1 11 4 
1 0 11 4 
2 0 8 6 
4 0 8 4 
1 2 7 6 
1 2 7 6 
1 0 7 8 
2 4 6 4 
1 0 8 7 
0 0 10 6 
1 0 11 4 
0 0 10 6 
2 0 6 8 
1 0 7 8 
2 0 10 4 
1 3 4 8 
1 2 7 6 
3 1 8 4 
1 0 7 8 
1 2 7 6 
1 0 11 4 
2 0 8 6 
1 1 6 8 
1 1 9 5 
2 1 7 6 
1 0 9 6 
1 0 8 7 
0 0 10 6 
0 0 10 6 
2 0 6 8 
3 0 6 7 
0 2 8 6 
1 0 7 8 
4 0 8 4 
3 1 8 4 
2 0 9 5 
0 0 11 5 
1 0 10 5 
0 0 9 7 
1 1 6 8 
1 1 9 5 
1 1 8 6 
2 2 5 7 
1 2 7 6 
0 0 9 7 
2 0 5 9 
2 0 6 8 
2 0 9 5 
2 0 5 9 
1 1 9 5 
2 0 9 5 
2 0 7 7 
1 0 10 5 
0 0 9 7 
2 0 8 6 
1 0 7 8 
2 0 9 5 
1 3 4 8 
1 2 7 6 
2 0 9 5 
0 2 8 6 
1 0 11 4 
1 0 10 5 
3 0 8 5 
2 0 9 5 
2 4 6 4 
1 0 10 5 
1 0 11 4 
2 0 9 5 
1 0 7 8 
1 0 8 7 
2 0 8 6 
1 0 9 6 
1 0 10 5 
1 0 8 7 
1 2 7 6 
2 0 9 5 
2 0 5 9 
2 0 6 8 
1 0 10 5 
2 0 8 6 
1 0 11 4 
0 0 10 6 
1 0 10 5 
3 1 8 4 
1 0 7 8 
1 0 11 4 
1 0 9 6 
2 0 6 8 
1 1 6 8 
1 0 8 7 
2 0 8 6 
2 0 9 5 
2 0 5 9 
1 1 9 5 
2 0 7 7 
2 0 8 6 
1 1 9 5 
0 2 8 6 
1 2 7 6 
2 1 7 6 
1 1 9 5 
3 0 8 5 
2 0 8 6 
2 2 5 7 
2 0 7 7 
1 0 8 7 
0 0 10 6 
2 0 9 5 
2 0 9 5 
1 0 8 7 
1 0 9 6 
2 0 9 5 
1 1 6 8 
1 1 9 5 
2 0 9 5 
0 0 10 6 
1 0 7 8 
0 0 9 7 
1 0 7 8 
1 1 6 8 
2 0 9 5 
1 2 7 6 
2 1 6 7 
2 1 7 6 
1 1 9 5 
2 0 9 5 
1 0 6 9 
1 0 11 4 
0 0 10 6 
1 0 7 8 
1 0 10 5 
0 1 11 4 
1 0 11 4 
2 1 6 7 
2 0 7 7 
1 1 9 5 
1 0 9 6 
3 0 6 7 
2 0 4 10 
2 0 9 5 
1 0 7 8 
2 1 6 7 
4 0 4 8 
2 1 7 6 
2 1 7 6 
1 0 10 5 
2 2 5 7 
1 2 7 6 
1 0 10 5 
4 0 4 8 
3 0 8 5 
2 1 6 7 
2 0 7 7 
2 0 7 7 
1 1 9 5 
2 2 5 7 
2 0 7 7 
2 0 9 5 
2 0 6 8 
1 0 7 8 
1 1 9 5 
2 0 8 6 
2 0 9 5 
2 0 9 5 
2 1 5 8 
2 0 8 6 
2 1 6 7 
0 2 8 6 
2 0 4 10 
1 0 7 8 
2 0 9 5 
0 0 10 6 
1 1 8 6 
2 0 9 5 
0 0 6 10 
2 0 8 6 
3 0 6 7 
1 1 10 4 
0 0 9 7 
1 0 7 8 
1 0 8 7 
4 0 8 4 
0 1 9 6 
2 1 6 7 
1 2 7 6 
1 1 8 6 
0 0 10 6 
2 0 9 5 
2 0 6 8 
2 0 9 5 
1 1 9 5 
2 2 5 7 
2 0 4 10 
2 1 7 6 
1 1 9 5 
1 0 10 5 
2 0 10 4 
2 0 9 5 
3 1 8 4 
2 0 9 5 
1 0 11 4 
1 0 11 4 
1 0 10 5 
1 0 8 7 
1 2 7 6 
3 1 8 4 
1 0 10 5 
3 0 8 5 
2 1 6 7 
1 1 6 8 
1 0 10 5 
2 0 8 6 
1 0 8 7 
2 0 8 6 
2 0 8 6 
0 1 9 6 
2 1 7 6 
1 0 10 5 
2 0 8 6 
0 0 6 10 
2 0 5 9 
1 2 7 6 
4 0 8 4 
2 0 10 4 
2 0 9 5 
1 1 10 4 
2 0 4 10 
4 0 4 8 
2 0 9 5 
1 0 7 8 
1 2 7 6 
1 0 8 7 
1 0 11 4 
1 0 10 5 
1 1 9 5 
1 1 8 6 
0 0 9 7 
1 0 11 4 
1 0 10 5 
1 0 9 6 
2 1 6 7 
4 0 4 8 
2 1 5 8 
2 0 4 10 
1 0 7 8 
2 0 9 5 
2 0 8 6 
2 0 8 6 
0 0 11 5 
2 1 7 6 
1 1 9 5 
1 0 6 9 
1 0 10 5 
2 0 5 9 
4 0 5 7 
2 0 7 7 
2 0 8 6 
1 0 7 8 
0 0 6 10 
3 1 8 4 
2 2 5 7 
2 1 5 8 
4 0 8 4 
4 0 4 8 
2 0 8 6 
0 1 11 4 
1 0 7 8 
1 1 8 6 
1 0 10 5 
3 0 6 7 
2 0 4 10 
2 0 6 8 
4 0 8 4 
2 0 7 7 
1 0 10 5 
2 0 9 5 
1 2 7 6 
0 0 10 6 
1 2 7 6 
1 0 11 4 
3 1 8 4 
0 0 11 5 
1 3 4 8 
0 2 8 6 
2 0 5 9 
4 0 5 7 
2 0 7 7 
1 0 7 8 
2 0 9 5 
4 0 4 8 
2 0 7 7 
2 1 6 7 
1 0 10 5 
1 2 7 6 
2 0 9 5 
0 1 11 4 
3 1 8 4 
2 4 6 4 
2 1 7 6 
2 0 4 10 
2 0 6 8 
0 0 6 10 
1 1 9 5 
2 0 9 5 
1 1 6 8 
2 0 9 5 
1 1 9 5 
1 0 6 9 
3 0 8 5 
2 1 7 6 
1 1 6 8 
2 2 5 7 
1 0 8 7 
2 0 9 5 
1 0 7 8 
2 0 8 6 
2 0 5 9 
4 0 5 7 
4 0 8 4 
0 1 9 6 
1 0 8 7 
0 1 11 4 
2 0 10 4 
3 0 6 7 
0 0 9 7 
1 0 8 7 
0 0 9 7 
2 0 8 6 
4 0 8 4 
2 0 9 5 
1 0 7 8 
1 0 8 7 
1 0 8 7 
2 0 9 5 
1 0 7 8 
1 0 10 5 
1 0 10 5 
1 0 8 7 
4 0 5 7 
1 0 10 5 
1 0 8 7 
0 0 9 7 
2 0 9 5 
2 0 9 5 
1 1 9 5 
1 0 7 8 
1 0 7 8 
1 0 11 4 
2 0 8 6 
4 0 5 7 
2 1 6 7 
2 4 6 4 
4 0 4 8 
1 0 7 8 
2 0 7 7 
2 0 7 7 
1 0 11 4 
2 0 9 5 
1 0 11 4 
2 0 9 5 
1 0 7 8 
1 1 6 8 
2 0 8 6 
2 0 7 7 
2 1 7 6 
1 0 6 9 
1 0 8 7 
3 0 6 7 
1 0 7 8 
2 0 8 6 
1 0 11 4 
1 0 10 5 
2 0 4 10 
1 0 10 5 
0 0 10 6 
2 0 9 5 
1 1 9 5 
1 3 4 8 
1 0 11 4 
1 0 10 5 
2 2 5 7 
2 1 5 8 
0 1 9 6 
0 1 9 6 
1 2 7 6 
1 0 8 7 
1 0 8 7 
0 1 11 4 
1 0 10 5 
1 0 10 5 
1 1 6 8 
1 2 7 6 
1 3 4 8 
1 0 7 8 
2 0 7 7 
2 4 6 4 
1 0 9 6 
1 0 11 4 
3 0 6 7 
2 0 9 5 
0 2 8 6 
4 0 5 7 
1 0 10 5 
1 1 6 8 
2 0 8 6 
2 0 7 7 
2 1 5 8 
2 0 7 7 
1 0 10 5 
2 0 7 7 
1 0 7 8 
0 0 10 6 
2 1 7 6 
1 1 8 6 
1 1 8 6 
1 1 10 4 
2 0 9 5 
4 0 4 8 
1 2 7 6 
2 0 7 7 
1 0 7 8 
1 0 8 7 
1 1 9 5 
2 4 6 4 
0 2 8 6 
1 0 7 8 
2 0 6 8 
2 0 9 5 
1 0 10 5 
2 0 9 5 
1 0 8 7 
2 0 9 5 
0 1 11 4 
1 0 7 8 
0 1 11 4 
2 1 7 6 
1 1 6 8 
1 1 6 8 
0 0 10 6 
2 2 5 7 
1 1 6 8 
1 0 10 5 
2 0 10 4 
2 0 7 7 
4 0 4 8 
0 0 9 7 
0 0 10 6 
2 0 7 7 
2 0 9 5 
1 0 10 5 
1 1 9 5 
4 0 8 4 
1 1 9 5 
2 0 8 6 
1 1 9 5 
2 4 6 4 
2 2 5 7 
0 0 9 7 
0 0 10 6 
0 2 8 6 
2 0 6 8 
2 1 6 7 
1 1 9 5 
4 0 8 4 
2 0 5 9 
1 2 7 6 
2 0 9 5 
1 0 8 7 
0 1 11 4 
2 0 8 6 
2 1 7 6 
1 0 11 4 
1 1 6 8 
2 0 8 6 
2 4 6 4 
1 1 6 8 
1 1 10 4 
2 1 5 8 
1 0 7 8 
2 0 6 8 
Heartbeat CPU 2 instructions: 10000001 cycles: 4435395 heartbeat IPC: 2.25459 cumulative IPC: 2.25459 (Simulation time: 0 hr 2 min 4 sec) 
2 0 5 9 
2 1 6 7 
1 0 7 8 
4 0 8 4 
2 1 5 8 
Heartbeat CPU 3 instructions: 10000001 cycles: 4439530 heartbeat IPC: 2.25249 cumulative IPC: 2.25249 (Simulation time: 0 hr 2 min 4 sec) 
0 1 9 6 
2 1 6 7 
2 0 8 6 
2 0 8 6 
2 1 6 7 
1 2 7 6 
0 0 6 10 
0 2 8 6 
1 0 8 7 
2 0 8 6 
1 0 7 8 
1 0 7 8 
1 0 10 5 
2 0 9 5 
2 1 6 7 
1 0 10 5 
2 0 7 7 
3 0 6 7 
1 1 10 4 
0 0 9 7 
2 0 9 5 
1 0 10 5 
2 0 9 5 
2 0 8 6 
1 1 8 6 
2 2 5 7 
1 1 6 8 
2 1 6 7 
2 0 5 9 
1 0 7 8 
2 0 9 5 
1 3 4 8 
3 0 6 7 
2 2 5 7 
1 0 10 5 
2 1 5 8 
1 0 7 8 
2 0 9 5 
2 0 8 6 
2 2 5 7 
1 1 7 7 
2 1 7 6 
2 0 7 7 
1 0 8 7 
0 0 11 5 
1 1 10 4 
1 0 10 5 
0 0 9 7 
2 1 5 8 
0 2 8 6 
2 1 6 7 
1 0 11 4 
2 0 8 6 
1 0 10 5 
2 1 6 7 
4 0 8 4 
2 0 7 7 
1 1 6 8 
2 2 5 7 
1 0 7 8 
1 0 10 5 
2 1 7 6 
2 0 9 5 
2 0 7 7 
2 1 7 6 
3 0 6 7 
0 0 11 5 
2 0 9 5 
1 1 10 4 
1 0 8 7 
0 2 8 6 
1 0 11 4 
0 0 10 6 
0 1 9 6 
3 0 8 5 
2 0 9 5 
2 0 8 6 
1 2 7 6 
2 0 6 8 
1 1 6 8 
1 2 7 6 
2 0 5 9 
0 0 9 7 
1 1 7 7 
2 0 9 5 
2 1 6 7 
2 0 10 4 
0 0 10 6 
0 0 11 5 
0 1 9 6 
4 0 4 8 
1 0 10 5 
1 1 9 5 
2 0 9 5 
2 1 5 8 
1 3 4 8 
2 1 6 7 
2 0 9 5 
1 0 7 8 
1 0 7 8 
1 0 8 7 
2 0 8 6 
1 0 7 8 
0 1 11 4 
1 2 7 6 
1 0 11 4 
2 0 7 7 
1 1 9 5 
1 0 7 8 
1 1 9 5 
1 1 9 5 
2 0 8 6 
2 0 6 8 
1 0 7 8 
1 2 7 6 
2 0 5 9 
1 0 8 7 
1 2 7 6 
0 1 11 4 
0 1 9 6 
1 0 11 4 
2 0 7 7 
0 1 11 4 
1 1 9 5 
3 0 6 7 
4 0 4 8 
1 0 11 4 
1 0 10 5 
1 3 4 8 
2 0 10 4 
1 1 6 8 
1 1 9 5 
0 0 10 6 
1 0 10 5 
2 0 9 5 
2 0 7 7 
1 0 8 7 
2 0 5 9 
1 0 10 5 
2 1 7 6 
2 0 4 10 
1 0 11 4 
1 0 8 7 
1 0 7 8 
1 1 6 8 
2 1 6 7 
2 0 8 6 
0 1 9 6 
1 0 10 5 
1 0 7 8 
1 0 11 4 
2 0 9 5 
1 1 6 8 
2 0 5 9 
2 0 6 8 
1 2 7 6 
2 0 9 5 
0 2 8 6 
1 0 10 5 
3 0 8 5 
2 0 9 5 
0 0 9 7 
1 0 6 9 
1 1 9 5 
1 0 7 8 
0 1 9 6 
4 0 8 4 
2 0 7 7 
2 0 9 5 
0 0 10 6 
1 0 10 5 
0 1 9 6 
2 0 6 8 
1 1 9 5 
0 0 10 6 
2 0 8 6 
2 0 9 5 
1 1 7 7 
2 1 6 7 
1 2 7 6 
2 0 9 5 
4 0 4 8 
1 0 11 4 
4 0 8 4 
2 0 7 7 
1 2 7 6 
0 0 6 10 
1 0 8 7 
1 1 6 8 
1 0 10 5 
0 0 10 6 
2 0 9 5 
1 0 11 4 
1 1 10 4 
1 3 4 8 
1 1 8 6 
4 0 5 7 
0 1 11 4 
1 3 4 8 
2 0 9 5 
2 2 5 7 
0 1 11 4 
0 1 9 6 
1 0 7 8 
0 0 10 6 
2 1 6 7 
1 1 9 5 
1 0 7 8 
2 0 5 9 
1 0 10 5 
1 0 7 8 
2 0 6 8 
2 0 6 8 
4 0 8 4 
1 0 8 7 
2 0 9 5 
4 0 8 4 
1 0 11 4 
2 0 8 6 
1 1 10 4 
1 0 8 7 
0 1 11 4 
2 0 9 5 
1 1 10 4 
0 0 6 10 
4 0 5 7 
2 0 7 7 
1 0 8 7 
2 1 7 6 
1 1 6 8 
1 0 7 8 
2 0 9 5 
1 1 10 4 
1 0 10 5 
2 0 9 5 
1 1 8 6 
3 0 8 5 
2 0 7 7 
2 1 6 7 
1 0 10 5 
2 0 8 6 
0 0 9 7 
1 0 8 7 
2 1 6 7 
1 1 6 8 
1 1 6 8 
1 1 7 7 
2 0 9 5 
1 1 6 8 
2 0 8 6 
1 3 4 8 
1 3 4 8 
1 2 7 6 
0 1 11 4 
4 0 8 4 
3 0 6 7 
1 0 10 5 
1 0 11 4 
1 1 9 5 
1 0 7 8 
0 0 6 10 
2 0 7 7 
1 0 8 7 
1 1 9 5 
1 0 10 5 
1 0 10 5 
2 1 6 7 
3 0 8 5 
2 0 6 8 
1 0 9 6 
1 1 8 6 
2 0 7 7 
1 0 10 5 
4 0 4 8 
3 0 6 7 
4 0 4 8 
0 1 9 6 
2 0 7 7 
1 0 8 7 
2 0 9 5 
2 0 9 5 
1 1 9 5 
1 0 7 8 
0 2 8 6 
2 0 8 6 
2 0 6 8 
0 0 6 10 
1 0 8 7 
1 0 6 9 
2 0 9 5 
1 1 6 8 
0 1 9 6 
1 1 9 5 
2 1 6 7 
1 2 7 6 
1 0 11 4 
2 1 7 6 
1 0 11 4 
2 4 6 4 
2 1 6 7 
1 1 7 7 
2 0 9 5 
1 1 6 8 
2 0 7 7 
2 1 6 7 
0 1 11 4 
0 2 8 6 
1 0 10 5 
1 0 10 5 
2 0 6 8 
1 0 10 5 
4 0 8 4 
1 3 4 8 
1 0 10 5 
1 0 7 8 
1 0 6 9 
3 0 8 5 
1 0 9 6 
2 0 7 7 
2 1 6 7 
1 0 10 5 
2 0 10 4 
2 0 9 5 
0 0 10 6 
1 1 9 5 
2 0 9 5 
1 0 11 4 
1 0 8 7 
0 1 11 4 
1 1 6 8 
2 1 7 6 
1 0 10 5 
1 0 6 9 
2 0 9 5 
2 0 9 5 
2 2 5 7 
2 0 7 7 
1 0 10 5 
2 0 10 4 
1 0 11 4 
1 0 8 7 
2 0 10 4 
1 0 8 7 
0 0 10 6 
2 0 5 9 
3 0 8 5 
3 0 6 7 
2 0 7 7 
2 0 5 9 
2 0 8 6 
4 0 5 7 
2 1 6 7 
2 0 6 8 
2 0 7 7 
1 0 8 7 
1 0 10 5 
2 0 8 6 
2 0 9 5 
2 0 9 5 
4 0 4 8 
1 3 4 8 
0 1 11 4 
2 1 5 8 
2 1 6 7 
1 0 11 4 
2 0 6 8 
0 0 6 10 
0 1 11 4 
4 0 8 4 
1 2 7 6 
1 0 8 7 
0 0 10 6 
3 1 8 4 
2 0 9 5 
2 1 7 6 
0 0 10 6 
1 0 10 5 
1 1 6 8 
3 1 8 4 
1 0 7 8 
2 0 8 6 
1 0 9 6 
1 1 9 5 
2 0 7 7 
1 0 11 4 
2 0 10 4 
2 1 6 7 
1 0 7 8 
2 0 4 10 
1 1 9 5 
2 1 6 7 
2 0 10 4 
2 0 5 9 
2 0 9 5 
1 0 10 5 
1 0 7 8 
2 1 5 8 
1 0 11 4 
2 1 6 7 
1 0 11 4 
1 0 10 5 
2 0 9 5 
2 1 7 6 
1 0 6 9 
3 0 8 5 
2 0 9 5 
1 1 8 6 
2 1 6 7 
1 0 7 8 
1 0 8 7 
2 0 7 7 
0 0 10 6 
2 2 5 7 
0 0 10 6 
1 1 6 8 
1 1 7 7 
4 0 8 4 
1 0 7 8 
1 0 10 5 
1 1 9 5 
2 0 8 6 
1 0 9 6 
2 1 7 6 
1 3 4 8 
1 0 11 4 
1 0 8 7 
1 1 9 5 
1 0 11 4 
2 0 7 7 
0 0 10 6 
2 0 9 5 
2 1 7 6 
1 0 9 6 
1 0 10 5 
2 1 5 8 
3 0 8 5 
2 1 7 6 
0 2 8 6 
2 0 8 6 
4 0 5 7 
2 0 8 6 
1 0 10 5 
2 0 10 4 
2 0 9 5 
1 0 11 4 
2 0 9 5 
1 0 8 7 
0 0 10 6 
0 2 8 6 
0 1 11 4 
2 0 8 6 
2 4 6 4 
3 1 7 5 
1 0 11 4 
0 0 10 6 
1 0 11 4 
1 0 10 5 
2 0 9 5 
4 0 8 4 
1 0 10 5 
2 0 9 5 
2 1 6 7 
2 1 5 8 
1 0 9 6 
2 0 8 6 
2 0 9 5 
1 0 11 4 
1 0 10 5 
4 0 4 8 
1 1 6 8 
2 0 8 6 
2 0 9 5 
1 2 7 6 
2 0 9 5 
1 0 8 7 
1 1 7 7 
1 0 10 5 
2 0 9 5 
1 0 8 7 
2 0 8 6 
2 0 8 6 
1 0 8 7 
2 0 7 7 
1 0 8 7 
2 0 9 5 
0 0 9 7 
3 1 7 5 
2 0 8 6 
1 0 6 9 
1 3 4 8 
1 0 11 4 
1 2 7 6 
2 4 6 4 
2 0 7 7 
2 0 8 6 
1 1 6 8 
0 0 10 6 
4 0 4 8 
2 4 6 4 
3 1 7 5 
2 1 6 7 
1 2 9 4 
2 2 5 7 
1 0 10 5 
4 0 8 4 
1 1 9 5 
0 1 9 6 
1 0 11 4 
0 1 9 6 
1 0 7 8 
1 2 9 4 
0 0 9 7 
2 0 8 6 
1 1 6 8 
1 1 6 8 
2 0 4 10 
0 2 8 6 
3 1 8 4 
2 0 5 9 
1 0 11 4 
1 0 11 4 
1 0 10 5 
0 2 8 6 
3 0 6 7 
2 0 8 6 
1 0 9 6 
2 0 6 8 
1 0 10 5 
2 0 7 7 
0 1 11 4 
1 0 8 7 
2 0 9 5 
1 0 8 7 
1 0 10 5 
2 0 9 5 
2 0 9 5 
1 0 7 8 
1 1 10 4 
4 0 4 8 
1 0 6 9 
1 3 4 8 
3 1 7 5 
2 2 5 7 
0 0 10 6 
0 1 11 4 
2 0 8 6 
1 1 9 5 
1 2 9 4 
0 0 6 10 
3 0 8 5 
2 2 5 7 
2 4 6 4 
2 0 9 5 
1 0 10 5 
2 0 9 5 
0 1 9 6 
3 0 6 7 
2 0 8 6 
2 1 5 8 
1 0 7 8 
4 0 5 7 
1 0 7 8 
3 0 4 9 
2 0 9 5 
1 0 10 5 
1 0 10 5 
0 0 10 6 
2 0 5 9 
2 0 7 7 
1 0 6 9 
2 0 8 6 
1 1 6 8 
2 0 8 6 
1 0 11 4 
1 1 6 8 
1 0 7 8 
3 0 6 7 
2 0 9 5 
1 0 10 5 
1 1 6 8 
0 0 6 10 
0 0 6 10 
1 0 8 7 
1 0 8 7 
2 0 5 9 
0 0 10 6 
1 0 10 5 
2 1 7 6 
1 0 9 6 
1 0 7 8 
0 0 10 6 
1 0 11 4 
1 0 10 5 
1 0 10 5 
2 0 9 5 
0 2 8 6 
1 1 6 8 
1 0 6 9 
3 1 8 4 
3 1 7 5 
2 0 9 5 
3 1 7 5 
2 2 5 7 
1 1 6 8 
1 0 10 5 
2 0 10 4 
3 0 6 7 
1 3 4 8 
1 0 10 5 
1 1 10 4 
1 1 8 6 
0 0 9 7 
4 0 5 7 
0 2 8 6 
2 0 9 5 
4 0 8 4 
2 0 10 4 
2 0 9 5 
2 1 7 6 
1 0 10 5 
1 0 10 5 
1 2 9 4 
0 1 9 6 
2 2 8 4 
3 1 7 5 
2 0 8 6 
1 0 10 5 
0 0 6 10 
2 0 9 5 
2 1 6 7 
2 1 6 7 
2 0 7 7 
2 0 9 5 
1 1 6 8 
Heartbeat CPU 0 instructions: 10000002 cycles: 5197024 heartbeat IPC: 1.92418 cumulative IPC: 1.92418 (Simulation time: 0 hr 2 min 30 sec) 

Warmup complete CPU 0 instructions: 10000002 cycles: 5197024 (Simulation time: 0 hr 2 min 30 sec) 
Warmup complete CPU 1 instructions: 13689642 cycles: 5197023 (Simulation time: 0 hr 2 min 30 sec) 
Warmup complete CPU 2 instructions: 11046785 cycles: 5197023 (Simulation time: 0 hr 2 min 30 sec) 
Warmup complete CPU 3 instructions: 11039578 cycles: 5197023 (Simulation time: 0 hr 2 min 30 sec) 

2 1 6 7 
0 1 11 4 
1 0 10 5 
2 0 10 4 
2 0 9 5 
3 0 6 7 
2 0 9 5 
2 2 5 7 
2 0 9 5 
1 0 10 5 
1 2 7 6 
1 3 4 8 
0 0 6 10 
2 4 6 4 
1 3 4 8 
0 2 8 6 
2 0 5 9 
0 0 10 6 
0 0 10 6 
4 0 8 4 
2 0 7 7 
2 0 8 6 
2 0 8 6 
1 3 4 8 
1 1 9 5 
1 0 7 8 
1 0 11 4 
2 0 7 7 
1 3 6 6 
2 0 7 7 
1 0 10 5 
2 2 8 4 
1 0 6 9 
3 0 8 5 
2 0 8 6 
2 2 5 7 
2 0 10 4 
3 1 5 7 
2 0 10 4 
0 0 9 7 
0 0 10 6 
2 1 6 7 
1 1 6 8 
3 0 4 9 
2 1 7 6 
3 0 4 9 
1 0 11 4 
3 0 4 9 
0 0 10 6 
2 0 5 9 
0 1 9 6 
1 0 10 5 
4 0 5 7 
4 0 4 8 
1 1 7 7 
2 0 9 5 
1 1 8 6 
1 0 7 8 
1 3 4 8 
1 0 10 5 
0 1 11 4 
2 0 9 5 
1 0 7 8 
0 0 6 10 
0 2 10 4 
2 0 9 5 
3 1 7 5 
3 1 5 7 
2 4 6 4 
2 4 6 4 
3 0 6 7 
1 0 9 6 
1 1 6 8 
2 2 8 4 
2 0 8 6 
1 0 11 4 
4 0 4 8 
1 0 10 5 
1 0 10 5 
1 1 6 8 
0 1 9 6 
2 1 8 5 
4 0 4 8 
1 0 7 8 
1 0 8 7 
3 1 7 5 
1 0 10 5 
2 0 7 7 
1 0 11 4 
2 0 9 5 
2 4 6 4 
3 1 7 5 
1 0 9 6 
1 0 9 6 
1 1 8 6 
1 0 8 7 
0 0 9 7 
3 0 8 5 
0 2 10 4 
2 0 5 9 
2 1 5 8 
2 1 7 6 
1 1 6 8 
2 1 6 7 
1 0 11 4 
0 2 10 4 
2 0 6 8 
1 1 7 7 
3 1 7 5 
2 0 8 6 
1 0 7 8 
3 1 7 5 
1 2 7 6 
1 0 10 5 
1 2 7 6 
0 0 6 10 
1 0 11 4 
4 0 8 4 
1 0 10 5 
1 0 6 9 
1 3 4 8 
2 0 9 5 
3 0 8 5 
2 4 6 4 
3 1 7 5 
3 1 8 4 
2 2 5 7 
3 0 8 5 
0 1 9 6 
1 0 7 8 
0 0 9 7 
3 0 8 5 
1 0 10 5 
2 0 5 9 
0 0 10 6 
2 1 7 6 
2 1 6 7 
1 0 8 7 
1 0 11 4 
0 0 10 6 
1 3 6 6 
1 1 9 5 
2 0 9 5 
2 0 9 5 
3 1 7 5 
2 0 8 6 
0 0 9 7 
2 0 7 7 
1 0 7 8 
0 1 9 6 
1 0 9 6 
1 0 11 4 
3 2 6 5 
4 0 4 8 
4 0 8 4 
2 0 8 6 
1 3 6 6 
1 0 5 10 
1 0 8 7 
2 1 8 5 
2 0 10 4 
1 1 10 4 
1 0 7 8 
1 0 8 7 
1 0 5 10 
1 2 7 6 
2 0 10 4 
3 1 5 7 
1 0 8 7 
2 0 9 5 
1 2 7 6 
1 0 10 5 
0 0 10 6 
2 0 9 5 
3 1 8 4 
4 2 5 5 
2 2 8 4 
3 1 7 5 
1 0 10 5 
1 0 10 5 
1 0 10 5 
4 0 4 8 
0 0 10 6 
1 2 7 6 
3 1 8 4 
2 0 7 7 
3 0 9 4 
1 0 7 8 
2 0 8 6 
3 0 6 7 
3 0 6 7 
3 1 5 7 
1 0 8 7 
1 1 10 4 
2 4 6 4 
3 0 8 5 
1 0 11 4 
2 2 5 7 
0 2 10 4 
3 1 5 7 
3 1 5 7 
1 2 7 6 
1 0 8 7 
1 1 9 5 
2 0 6 8 
1 0 10 5 
2 1 7 6 
4 1 7 4 
1 0 10 5 
1 0 8 7 
4 0 8 4 
1 0 7 8 
1 2 7 6 
3 0 8 5 
1 0 10 5 
2 2 8 4 
1 1 8 6 
1 1 7 7 
2 1 7 6 
3 0 9 4 
2 0 8 6 
2 0 8 6 
2 1 8 5 
3 0 7 6 
0 1 9 6 
1 0 6 9 
3 1 8 4 
2 0 9 5 
2 0 8 6 
2 1 6 7 
2 3 4 7 
1 1 5 9 
1 2 7 6 
2 0 9 5 
2 1 6 7 
2 0 9 5 
1 0 10 5 
2 1 9 4 
4 0 8 4 
4 2 5 5 
3 0 9 4 
2 4 6 4 
1 1 5 9 
4 0 4 8 
1 0 9 6 
2 0 9 5 
3 0 9 4 
1 0 11 4 
1 0 10 5 
3 0 8 5 
2 1 9 4 
3 0 7 6 
2 0 5 9 
2 0 10 4 
3 1 5 7 
2 1 7 6 
2 1 7 6 
1 2 7 6 
4 0 5 7 
2 1 6 7 
2 1 6 7 
2 0 6 8 
1 0 7 8 
0 1 9 6 
1 0 7 8 
2 1 6 7 
2 0 9 5 
3 1 8 4 
4 0 4 8 
1 0 7 8 
0 1 9 6 
1 3 6 6 
1 0 6 9 
4 0 8 4 
2 4 6 4 
3 1 7 5 
1 2 7 6 
1 0 8 7 
2 0 7 7 
2 2 5 7 
3 0 6 7 
2 0 10 4 
4 1 7 4 
0 0 10 6 
3 2 7 4 
3 0 8 5 
4 2 5 5 
2 0 10 4 
2 1 6 7 
1 0 10 5 
2 0 9 5 
3 2 7 4 
2 2 8 4 
4 0 8 4 
3 0 9 4 
2 4 6 4 
2 2 5 7 
1 1 9 5 
0 0 10 6 
3 0 6 7 
2 0 10 4 
2 1 9 4 
4 0 4 8 
2 0 5 9 
0 2 10 4 
3 1 5 7 
2 2 8 4 
2 0 5 9 
2 1 7 6 
3 1 5 7 
2 0 6 8 
1 0 6 9 
1 3 6 6 
1 1 6 8 
1 1 9 5 
3 0 6 7 
2 2 5 7 
1 0 7 8 
2 1 6 7 
1 3 6 6 
3 2 5 6 
4 0 5 7 
1 0 8 7 
1 2 7 6 
2 0 10 4 
1 2 7 6 
4 0 5 7 
3 2 7 4 
3 0 9 4 
2 1 6 7 
2 2 8 4 
2 2 5 7 
1 0 7 8 
2 0 10 4 
1 0 10 5 
1 0 7 8 
2 0 9 5 
4 1 7 4 
2 1 6 7 
2 0 7 7 
1 0 7 8 
1 0 10 5 
3 0 7 6 
1 0 10 5 
1 1 6 8 
2 1 6 7 
2 2 8 4 
3 0 9 4 
2 0 6 8 
3 2 5 6 
3 0 9 4 
3 1 7 5 
1 0 9 6 
2 0 10 4 
4 2 4 6 
1 0 8 7 
4 1 7 4 
1 0 8 7 
2 0 7 7 
2 1 7 6 
3 1 5 7 
1 1 9 5 
2 1 9 4 
1 1 6 8 
1 0 8 7 
1 1 9 5 
4 0 4 8 
1 0 9 6 
4 2 6 4 
2 0 7 7 
3 0 8 5 
3 1 5 7 
3 2 7 4 
1 0 10 5 
1 0 10 5 
2 2 8 4 
2 0 6 8 
4 0 8 4 
3 1 7 5 
1 1 6 8 
Heartbeat CPU 1 instructions: 20000001 cycles: 10065924 heartbeat IPC: 1.58681 cumulative IPC: 1.29605 (Simulation time: 0 hr 3 min 5 sec) 
2 0 10 4 
2 0 10 4 
3 1 7 5 
0 0 10 6 
3 1 5 7 
4 0 5 7 
1 1 6 8 
2 0 6 8 
2 1 6 7 
1 0 10 5 
2 0 10 4 
1 0 7 8 
2 0 9 5 
4 0 4 8 
1 1 8 6 
2 0 8 6 
1 3 6 6 
3 0 9 4 
2 2 8 4 
2 0 9 5 
3 2 5 6 
0 2 10 4 
3 2 7 4 
3 0 8 5 
1 0 7 8 
2 1 9 4 
1 0 10 5 
1 0 10 5 
3 0 9 4 
1 0 8 7 
4 0 8 4 
1 1 6 8 
2 1 6 7 
4 2 6 4 
1 1 9 5 
3 1 5 7 
4 0 5 7 
0 0 10 6 
4 0 5 7 
4 2 6 4 
3 0 9 4 
1 0 7 8 
2 0 9 5 
2 0 8 6 
1 0 8 7 
2 0 9 5 
1 0 8 7 
3 2 7 4 
2 0 9 5 
2 0 7 7 
4 0 8 4 
2 4 6 4 
3 1 7 5 
3 1 8 4 
1 2 7 6 
1 1 9 5 
4 2 5 5 
3 1 5 7 
0 0 10 6 
1 0 9 6 
3 0 7 6 
3 0 8 5 
2 1 6 7 
1 1 5 9 
2 0 9 5 
2 1 6 7 
2 4 6 4 
2 0 10 4 
2 0 5 9 
1 1 9 5 
1 3 6 6 
1 2 7 6 
2 0 9 5 
1 0 7 8 
2 2 8 4 
3 1 8 4 
3 2 7 4 
1 1 9 5 
1 1 5 9 
1 1 6 8 
3 0 8 5 
1 0 8 7 
1 1 8 6 
3 0 5 8 
2 0 7 7 
2 0 7 7 
1 0 10 5 
2 2 8 4 
2 0 10 4 
2 0 9 5 
2 1 6 7 
1 1 8 6 
1 0 8 7 
4 0 7 5 
1 0 10 5 
2 0 10 4 
2 1 6 7 
4 0 8 4 
2 1 9 4 
3 0 7 6 
3 2 5 6 
3 0 9 4 
3 1 8 4 
3 0 8 5 
3 0 9 4 
2 1 9 4 
1 1 5 9 
1 2 7 6 
0 0 10 6 
1 0 8 7 
2 1 9 4 
1 0 10 5 
2 0 9 5 
4 0 8 4 
2 1 7 6 
3 0 5 8 
1 1 6 8 
1 0 9 6 
4 2 6 4 
3 0 9 4 
0 0 10 6 
4 2 4 6 
1 1 9 5 
3 1 8 4 
4 2 4 6 
1 0 10 5 
1 0 7 8 
4 0 7 5 
3 1 5 7 
1 0 7 8 
2 1 6 7 
2 1 7 6 
1 0 7 8 
4 0 4 8 
1 3 6 6 
1 2 7 6 
1 0 8 7 
2 0 7 7 
2 1 9 4 
2 0 9 5 
2 2 8 4 
2 0 6 8 
2 4 6 4 
2 0 9 5 
2 1 7 6 
1 1 6 8 
3 0 9 4 
2 2 8 4 
3 0 5 8 
4 1 7 4 
1 2 7 6 
2 1 6 7 
1 1 9 5 
2 2 6 6 
1 0 11 4 
3 1 8 4 
3 1 8 4 
2 1 6 7 
4 0 8 4 
1 1 8 6 
2 1 6 7 
3 1 5 7 
2 2 8 4 
3 1 5 7 
4 2 4 6 
2 1 6 7 
1 1 8 6 
3 0 6 7 
2 1 6 7 
4 0 4 8 
0 0 10 6 
3 0 5 8 
3 2 4 7 
2 1 9 4 
4 0 5 7 
2 1 6 7 
1 1 6 8 
4 2 6 4 
2 1 7 6 
4 1 7 4 
2 1 9 4 
3 0 7 6 
3 1 8 4 
3 0 8 5 
2 0 7 7 
1 1 5 9 
1 0 8 7 
3 1 8 4 
2 0 9 5 
0 2 10 4 
4 2 5 5 
2 0 7 7 
1 0 10 5 
2 1 6 7 
4 1 7 4 
1 2 7 6 
2 0 6 8 
3 0 8 5 
1 1 9 5 
1 1 6 8 
2 2 6 6 
1 1 6 8 
2 0 10 4 
4 0 7 5 
3 2 4 7 
1 1 6 8 
2 1 6 7 
4 2 6 4 
2 1 9 4 
3 0 7 6 
1 1 9 5 
3 1 8 4 
2 1 7 6 
2 3 4 7 
2 2 6 6 
4 2 5 5 
1 0 10 5 
2 0 9 5 
3 0 5 8 
4 0 8 4 
1 1 9 5 
3 1 5 7 
2 3 4 7 
2 2 6 6 
4 0 6 6 
2 0 7 7 
1 0 7 8 
1 0 10 5 
2 2 8 4 
2 2 8 4 
0 2 10 4 
2 4 6 4 
3 1 7 5 
1 0 8 7 
3 0 9 4 
3 0 5 8 
3 1 5 7 
4 2 4 6 
4 0 5 7 
2 1 7 6 
3 1 7 5 
2 1 6 7 
3 0 7 6 
2 0 7 7 
1 0 8 7 
1 1 5 9 
0 0 10 6 
3 2 7 4 
4 1 7 4 
1 0 10 5 
1 1 6 8 
1 1 8 6 
3 1 5 7 
3 0 5 8 
4 0 7 5 
3 2 5 6 
1 1 6 8 
1 0 8 7 
0 0 10 6 
3 0 5 8 
2 0 7 7 
3 2 4 7 
1 1 6 8 
4 2 6 4 
2 0 8 6 
2 3 4 7 
1 0 8 7 
0 0 10 6 
1 1 8 6 
3 1 5 7 
4 1 7 4 
2 1 9 4 
2 1 6 7 
3 1 5 7 
2 2 8 4 
3 0 5 8 
4 0 8 4 
1 0 7 8 
1 1 9 5 
3 0 9 4 
0 0 10 6 
1 0 11 4 
1 2 9 4 
2 1 9 4 
1 1 6 8 
3 1 7 5 
3 1 8 4 
4 0 4 8 
2 0 9 5 
1 0 7 8 
2 0 8 6 
3 1 7 5 
2 1 5 8 
1 0 8 7 
2 0 9 5 
1 0 8 7 
1 1 9 5 
4 2 5 5 
3 0 7 6 
1 0 10 5 
2 0 9 5 
1 0 10 5 
2 2 8 4 
4 0 8 4 
2 1 6 7 
2 4 6 4 
4 1 7 4 
2 0 9 5 
3 2 5 6 
1 1 6 8 
3 0 9 4 
3 1 5 7 
2 0 10 4 
3 1 8 4 
3 1 8 4 
1 0 8 7 
1 0 10 5 
2 0 9 5 
2 1 6 7 
4 0 6 6 
2 1 6 7 
4 2 6 4 
3 1 8 4 
3 0 7 6 
2 0 8 6 
4 2 4 6 
2 0 10 4 
3 1 8 4 
2 1 6 7 
1 1 6 8 
2 1 6 7 
3 1 7 5 
2 1 9 4 
1 0 7 8 
4 0 4 8 
3 0 8 5 
1 0 10 5 
2 0 7 7 
1 1 6 8 
2 2 8 4 
3 0 5 8 
4 1 7 4 
4 0 8 4 
1 2 8 5 
3 0 9 4 
4 2 5 5 
1 1 8 6 
3 1 8 4 
1 0 8 7 
2 0 9 5 
3 0 5 8 
3 2 4 7 
0 0 10 6 
2 0 9 5 
4 2 5 5 
4 1 7 4 
1 2 5 8 
3 0 7 6 
4 2 4 6 
1 0 7 8 
1 0 10 5 
4 1 4 7 
1 0 10 5 
1 0 10 5 
3 2 4 7 
2 0 9 5 
4 0 5 7 
2 1 6 7 
2 1 7 6 
4 0 6 6 
2 1 6 7 
1 0 7 8 
1 1 9 5 
1 0 10 5 
1 3 6 6 
2 3 4 7 
4 0 4 8 
0 0 10 6 
4 1 4 7 
2 1 9 4 
2 1 5 8 
2 1 9 4 
2 1 6 7 
1 0 10 5 
1 1 8 6 
1 0 10 5 
3 1 5 7 
2 2 8 4 
4 0 4 8 
4 1 7 4 
2 0 9 5 
4 2 5 5 
2 1 6 7 
4 2 4 6 
3 1 5 7 
1 0 8 7 
3 2 4 7 
2 1 7 6 
4 2 6 4 
1 2 9 4 
4 0 5 7 
1 3 6 6 
2 0 7 7 
4 2 5 5 
2 2 4 8 
2 1 6 7 
4 2 6 4 
3 1 8 4 
3 1 7 5 
2 1 9 4 
3 0 7 6 
4 0 6 6 
3 1 8 4 
1 0 7 8 
4 0 4 8 
Heartbeat CPU 0 instructions: 20000002 cycles: 15205576 heartbeat IPC: 0.999146 cumulative IPC: 0.999146 (Simulation time: 0 hr 3 min 44 sec) 
2 3 4 7 
1 1 8 6 
2 2 6 6 
1 0 11 4 
0 0 10 6 
3 2 7 4 
4 2 5 5 
3 0 7 6 
1 0 10 5 
1 0 10 5 
2 0 9 5 
4 0 4 8 
4 1 7 4 
2 1 6 7 
3 1 5 7 
3 0 9 4 
1 1 10 4 
2 0 7 7 
1 0 11 4 
2 1 7 6 
4 2 5 5 
2 1 6 7 
3 1 5 7 
4 0 4 8 
4 1 7 4 
4 0 8 4 
4 1 7 4 
2 0 9 5 
1 2 5 8 
2 1 6 7 
1 0 10 5 
2 0 10 4 
4 2 4 6 
1 1 10 4 
3 2 4 7 
2 1 7 6 
1 1 6 8 
3 1 6 6 
4 2 6 4 
3 1 7 5 
3 1 8 4 
2 1 6 7 
2 1 9 4 
3 0 7 6 
3 0 8 5 
1 0 7 8 
2 3 4 7 
0 0 10 6 
4 1 7 4 
2 0 9 5 
2 1 6 7 
2 2 6 6 
4 1 7 4 
2 1 6 7 
3 0 9 4 
1 0 8 7 
1 0 8 7 
3 1 8 4 
1 1 10 4 
3 0 5 8 
2 1 6 7 
1 1 6 8 
4 0 6 6 
4 2 6 4 
1 1 9 5 
3 0 9 4 
3 0 7 6 
1 3 6 6 
2 3 4 7 
2 3 4 7 
1 1 8 6 
0 0 10 6 
3 0 7 6 
4 2 5 5 
2 2 4 8 
3 2 7 4 
4 1 7 4 
4 0 4 8 
2 0 9 5 
4 2 5 5 
1 2 5 8 
2 1 6 7 
3 0 7 6 
2 1 6 7 
1 2 7 6 
3 1 8 4 
1 0 8 7 
4 0 4 8 
3 0 5 8 
4 0 5 7 
2 1 6 7 
4 2 6 4 
3 1 7 5 
1 2 9 4 
1 0 7 8 
1 1 9 5 
1 3 6 6 
2 1 7 6 
2 3 4 7 
3 1 8 4 
3 2 6 5 
2 0 9 5 
1 0 8 7 
1 0 11 4 
1 1 8 6 
0 0 10 6 
4 2 5 5 
1 2 9 4 
3 2 7 4 
4 1 7 4 
1 0 10 5 
[...]
4 4 4 4 
4 4 4 4 
4 4 4 4 
4 4 4 4 
4 4 4 4 
4 4 4 4 
4 4 4 4 
4 4 4 4 
4 4 4 4 
4 4 4 4 
4 4 4 4 
4 4 4 4 
4 4 4 4 
4 4 4 4 
4 4 4 4 
4 4 4 4 
4 4 4 4 
4 4 4 4 
4 4 4 4 
4 4 4 4 
4 4 4 4 
4 4 4 4 
4 4 4 4 
4 4 4 4 
4 4 4 4 
4 4 4 4 
4 4 4 4 
4 4 4 4 
4 4 4 4 
4 4 4 4 
4 4 4 4 
4 4 4 4 
4 4 4 4 
4 4 4 4 
4 4 4 4 
4 4 4 4 
4 4 4 4 
4 4 4 4 
4 4 4 4 
4 4 4 4 
4 4 4 4 
4 4 4 4 
4 4 4 4 
4 4 4 4 
4 4 4 4 
4 4 4 4 
4 4 4 4 
4 4 4 4 
4 4 4 4 
4 4 4 4 
4 4 4 4 
4 4 4 4 
4 4 4 4 
4 4 4 4 
4 4 4 4 
4 4 4 4 
4 4 4 4 
4 4 4 4 
4 4 4 4 
4 4 4 4 
4 4 4 4 
4 4 4 4 
4 4 4 4 
4 4 4 4 
4 4 4 4 
4 4 4 4 
4 4 4 4 
4 4 4 4 
4 4 4 4 
4 4 4 4 
4 4 4 4 
4 4 4 4 
4 4 4 4 
4 4 4 4 
4 4 4 4 
4 4 4 4 
4 4 4 4 
4 4 4 4 
4 4 4 4 
4 4 4 4 
4 4 4 4 
4 4 4 4 
4 4 4 4 
4 4 4 4 
4 4 4 4 
4 4 4 4 
4 4 4 4 
4 4 4 4 
4 4 4 4 
4 4 4 4 
4 4 4 4 
4 4 4 4 
4 4 4 4 
4 4 4 4 
4 4 4 4 
4 4 4 4 
4 4 4 4 
4 4 4 4 
4 4 4 4 
4 4 4 4 
4 4 4 4 
4 4 4 4 
Heartbeat CPU 1 instructions: 310000002 cycles: 236156793 heartbeat IPC: 1.30844 cumulative IPC: 1.28295 (Simulation time: 0 hr 43 min 7 sec) 
4 4 4 4 
4 4 4 4 
4 4 4 4 
4 4 4 4 
4 4 4 4 
4 4 4 4 
4 4 4 4 
4 4 4 4 
4 4 4 4 
4 4 4 4 
4 4 4 4 
4 4 4 4 
4 4 4 4 
4 4 4 4 
4 4 4 4 
4 4 4 4 
4 4 4 4 
4 4 4 4 
4 4 4 4 
4 4 4 4 
4 4 4 4 
4 4 4 4 
4 4 4 4 
4 4 4 4 
4 4 4 4 
4 4 4 4 
4 4 4 4 
4 4 4 4 
4 4 4 4 
4 4 4 4 
4 4 4 4 
4 4 4 4 
4 4 4 4 
4 4 4 4 
4 4 4 4 
4 4 4 4 
4 4 4 4 
4 4 4 4 
4 4 4 4 
4 4 4 4 
4 4 4 4 
4 4 4 4 
4 4 4 4 
4 4 4 4 
4 4 4 4 
4 4 4 4 
4 4 4 4 
4 4 4 4 
4 4 4 4 
4 4 4 4 
4 4 4 4 
4 4 4 4 
4 4 4 4 
4 4 4 4 
4 4 4 4 
4 4 4 4 
4 4 4 4 
4 4 4 4 
4 4 4 4 
4 4 4 4 
4 4 4 4 
4 4 4 4 
4 4 4 4 
4 4 4 4 
4 4 4 4 
4 4 4 4 
4 4 4 4 
Heartbeat CPU 0 instructions: 240000001 cycles: 237652622 heartbeat IPC: 1.01331 cumulative IPC: 0.989436 (Simulation time: 0 hr 43 min 20 sec) 
4 4 4 4 
4 4 4 4 
4 4 4 4 
4 4 4 4 
4 4 4 4 
4 4 4 4 
4 4 4 4 
4 4 4 4 
4 4 4 4 
4 4 4 4 
4 4 4 4 
4 4 4 4 
4 4 4 4 
4 4 4 4 
4 4 4 4 
4 4 4 4 
4 4 4 4 
4 4 4 4 
4 4 4 4 
4 4 4 4 
4 4 4 4 
4 4 4 4 
4 4 4 4 
4 4 4 4 
4 4 4 4 
4 4 4 4 
4 4 4 4 
4 4 4 4 
4 4 4 4 
4 4 4 4 
4 4 4 4 
4 4 4 4 
4 4 4 4 
4 4 4 4 
4 4 4 4 
4 4 4 4 
4 4 4 4 
4 4 4 4 
4 4 4 4 
4 4 4 4 
4 4 4 4 
4 4 4 4 
4 4 4 4 
4 4 4 4 
4 4 4 4 
4 4 4 4 
4 4 4 4 
4 4 4 4 
4 4 4 4 
4 4 4 4 
4 4 4 4 
4 4 4 4 
4 4 4 4 
4 4 4 4 
4 4 4 4 
4 4 4 4 
4 4 4 4 
4 4 4 4 
4 4 4 4 
4 4 4 4 
4 4 4 4 
4 4 4 4 
4 4 4 4 
4 4 4 4 
4 4 4 4 
4 4 4 4 
4 4 4 4 
4 4 4 4 
4 4 4 4 
4 4 4 4 
4 4 4 4 
4 4 4 4 
4 4 4 4 
4 4 4 4 
4 4 4 4 
4 4 4 4 
4 4 4 4 
4 4 4 4 
4 4 4 4 
4 4 4 4 
4 4 4 4 
4 4 4 4 
4 4 4 4 
4 4 4 4 
4 4 4 4 
4 4 4 4 
4 4 4 4 
4 4 4 4 
4 4 4 4 
4 4 4 4 
4 4 4 4 
4 4 4 4 
4 4 4 4 
4 4 4 4 
4 4 4 4 
4 4 4 4 
4 4 4 4 
4 4 4 4 
4 4 4 4 
4 4 4 4 
4 4 4 4 
4 4 4 4 
4 4 4 4 
4 4 4 4 
4 4 4 4 
Heartbeat CPU 2 instructions: 60000000 cycles: 240167108 heartbeat IPC: 0.367395 cumulative IPC: 0.208338 (Simulation time: 0 hr 43 min 43 sec) 
4 4 4 4 
4 4 4 4 
4 4 4 4 
4 4 4 4 
4 4 4 4 
4 4 4 4 
4 4 4 4 
Heartbeat CPU 3 instructions: 60000000 cycles: 240339968 heartbeat IPC: 0.367821 cumulative IPC: 0.208216 (Simulation time: 0 hr 43 min 45 sec) 
4 4 4 4 
4 4 4 4 
4 4 4 4 
4 4 4 4 
4 4 4 4 
4 4 4 4 
4 4 4 4 
4 4 4 4 
4 4 4 4 
4 4 4 4 
4 4 4 4 
4 4 4 4 
4 4 4 4 
4 4 4 4 
4 4 4 4 
4 4 4 4 
4 4 4 4 
4 4 4 4 
4 4 4 4 
4 4 4 4 
4 4 4 4 
4 4 4 4 
4 4 4 4 
4 4 4 4 
4 4 4 4 
4 4 4 4 
4 4 4 4 
4 4 4 4 
4 4 4 4 
4 4 4 4 
4 4 4 4 
4 4 4 4 
4 4 4 4 
4 4 4 4 
4 4 4 4 
4 4 4 4 
4 4 4 4 
4 4 4 4 
4 4 4 4 
4 4 4 4 
4 4 4 4 
4 4 4 4 
4 4 4 4 
4 4 4 4 
4 4 4 4 
4 4 4 4 
4 4 4 4 
4 4 4 4 
4 4 4 4 
4 4 4 4 
4 4 4 4 
4 4 4 4 
4 4 4 4 
4 4 4 4 
4 4 4 4 
4 4 4 4 
4 4 4 4 
4 4 4 4 
4 4 4 4 
4 4 4 4 
4 4 4 4 
4 4 4 4 
4 4 4 4 
4 4 4 4 
4 4 4 4 
4 4 4 4 
4 4 4 4 
4 4 4 4 
4 4 4 4 
4 4 4 4 
4 4 4 4 
4 4 4 4 
4 4 4 4 
4 4 4 4 
4 4 4 4 
4 4 4 4 
4 4 4 4 
4 4 4 4 
4 4 4 4 
4 4 4 4 
4 4 4 4 
4 4 4 4 
4 4 4 4 
4 4 4 4 
4 4 4 4 
4 4 4 4 
4 4 4 4 
4 4 4 4 
4 4 4 4 
4 4 4 4 
4 4 4 4 
4 4 4 4 
4 4 4 4 
4 4 4 4 
4 4 4 4 
4 4 4 4 
4 4 4 4 
4 4 4 4 
4 4 4 4 
4 4 4 4 
4 4 4 4 
4 4 4 4 
4 4 4 4 
4 4 4 4 
4 4 4 4 
4 4 4 4 
4 4 4 4 
4 4 4 4 
4 4 4 4 
Finished CPU 2 instructions: 50000001 cycles: 237829348 cumulative IPC: 0.210235 (Simulation time: 0 hr 44 min 9 sec) 
4 4 4 4 
4 4 4 4 
4 4 4 4 
4 4 4 4 
Finished CPU 3 instructions: 50000000 cycles: 237981727 cumulative IPC: 0.2101 (Simulation time: 0 hr 44 min 11 sec) 

ChampSim completed all CPUs

Total Simulation Statistics (not including warmup)

CPU 0 cumulative IPC: 0.990211 instructions: 235652149 cycles: 237981726
L1D TOTAL     ACCESS:   35412374  HIT:   10319983  MISS:   25092391
L1D LOAD      ACCESS:    6402852  HIT:    5945230  MISS:     457622
L1D RFO       ACCESS:   29009522  HIT:    4374753  MISS:   24634769
L1D PREFETCH  ACCESS:          0  HIT:          0  MISS:          0
L1D WRITEBACK ACCESS:          0  HIT:          0  MISS:          0
L1I TOTAL     ACCESS:   60160877  HIT:   60160872  MISS:          5
L1I LOAD      ACCESS:   60160877  HIT:   60160872  MISS:          5
L1I RFO       ACCESS:          0  HIT:          0  MISS:          0
L1I PREFETCH  ACCESS:          0  HIT:          0  MISS:          0
L1I WRITEBACK ACCESS:          0  HIT:          0  MISS:          0
L2C TOTAL     ACCESS:   49872687  HIT:   40381947  MISS:    9490740
L2C LOAD      ACCESS:     457626  HIT:     192183  MISS:     265443
L2C RFO       ACCESS:   24634769  HIT:   15409472  MISS:    9225297
L2C PREFETCH  ACCESS:          0  HIT:          0  MISS:          0
L2C WRITEBACK ACCESS:   24780292  HIT:   24780292  MISS:          0
LLC TOTAL     ACCESS:   18788310  HIT:   18656758  MISS:     131552
LLC LOAD      ACCESS:     265441  HIT:     161473  MISS:     103968
LLC RFO       ACCESS:    9225296  HIT:    9201521  MISS:      23775
LLC PREFETCH  ACCESS:          0  HIT:          0  MISS:          0
LLC WRITEBACK ACCESS:    9297573  HIT:    9293764  MISS:       3809

CPU 1 cumulative IPC: 1.28324 instructions: 305387546 cycles: 237981727
L1D TOTAL     ACCESS:  101543751  HIT:  101133803  MISS:     409948
L1D LOAD      ACCESS:   47724999  HIT:   47326496  MISS:     398503
L1D RFO       ACCESS:   53818752  HIT:   53807307  MISS:      11445
L1D PREFETCH  ACCESS:          0  HIT:          0  MISS:          0
L1D WRITEBACK ACCESS:          0  HIT:          0  MISS:          0
L1I TOTAL     ACCESS:   75485117  HIT:   75485116  MISS:          1
L1I LOAD      ACCESS:   75485117  HIT:   75485116  MISS:          1
L1I RFO       ACCESS:          0  HIT:          0  MISS:          0
L1I PREFETCH  ACCESS:          0  HIT:          0  MISS:          0
L1I WRITEBACK ACCESS:          0  HIT:          0  MISS:          0
L2C TOTAL     ACCESS:     440564  HIT:     363642  MISS:      76922
L2C LOAD      ACCESS:     398501  HIT:     331941  MISS:      66560
L2C RFO       ACCESS:      11443  HIT:       1096  MISS:      10347
L2C PREFETCH  ACCESS:          0  HIT:          0  MISS:          0
L2C WRITEBACK ACCESS:      30620  HIT:      30605  MISS:         15
LLC TOTAL     ACCESS:      99743  HIT:      23920  MISS:      75823
LLC LOAD      ACCESS:      66560  HIT:       1345  MISS:      65215
LLC RFO       ACCESS:      10347  HIT:          0  MISS:      10347
LLC PREFETCH  ACCESS:          0  HIT:          0  MISS:          0
LLC WRITEBACK ACCESS:      22836  HIT:      22575  MISS:        261

CPU 2 cumulative IPC: 0.210336 instructions: 50056203 cycles: 237981727
L1D TOTAL     ACCESS:   15752349  HIT:   14547777  MISS:    1204572
L1D LOAD      ACCESS:    9639247  HIT:    8713328  MISS:     925919
L1D RFO       ACCESS:    6113102  HIT:    5834449  MISS:     278653
L1D PREFETCH  ACCESS:          0  HIT:          0  MISS:          0
L1D WRITEBACK ACCESS:          0  HIT:          0  MISS:          0
L1I TOTAL     ACCESS:    8544180  HIT:    8544097  MISS:         83
L1I LOAD      ACCESS:    8544180  HIT:    8544097  MISS:         83
L1I RFO       ACCESS:          0  HIT:          0  MISS:          0
L1I PREFETCH  ACCESS:          0  HIT:          0  MISS:          0
L1I WRITEBACK ACCESS:          0  HIT:          0  MISS:          0
L2C TOTAL     ACCESS:    1621951  HIT:     445433  MISS:    1176518
L2C LOAD      ACCESS:     926002  HIT:      26759  MISS:     899243
L2C RFO       ACCESS:     278653  HIT:       1409  MISS:     277244
L2C PREFETCH  ACCESS:          0  HIT:          0  MISS:          0
L2C WRITEBACK ACCESS:     417296  HIT:     417265  MISS:         31
LLC TOTAL     ACCESS:    1592411  HIT:     452217  MISS:    1140194
LLC LOAD      ACCESS:     899243  HIT:      31131  MISS:     868112
LLC RFO       ACCESS:     277244  HIT:       6376  MISS:     270868
LLC PREFETCH  ACCESS:          0  HIT:          0  MISS:          0
LLC WRITEBACK ACCESS:     415924  HIT:     414710  MISS:       1214

CPU 3 cumulative IPC: 0.2101 instructions: 50000000 cycles: 237981727
L1D TOTAL     ACCESS:   15731129  HIT:   14526589  MISS:    1204540
L1D LOAD      ACCESS:    9626721  HIT:    8700886  MISS:     925835
L1D RFO       ACCESS:    6104408  HIT:    5825703  MISS:     278705
L1D PREFETCH  ACCESS:          0  HIT:          0  MISS:          0
L1D WRITEBACK ACCESS:          0  HIT:          0  MISS:          0
L1I TOTAL     ACCESS:    8535742  HIT:    8535659  MISS:         83
L1I LOAD      ACCESS:    8535742  HIT:    8535659  MISS:         83
L1I RFO       ACCESS:          0  HIT:          0  MISS:          0
L1I PREFETCH  ACCESS:          0  HIT:          0  MISS:          0
L1I WRITEBACK ACCESS:          0  HIT:          0  MISS:          0
L2C TOTAL     ACCESS:    1621879  HIT:     445467  MISS:    1176412
L2C LOAD      ACCESS:     925918  HIT:      26902  MISS:     899016
L2C RFO       ACCESS:     278705  HIT:       1343  MISS:     277362
L2C PREFETCH  ACCESS:          0  HIT:          0  MISS:          0
L2C WRITEBACK ACCESS:     417256  HIT:     417222  MISS:         34
LLC TOTAL     ACCESS:    1592262  HIT:     451286  MISS:    1140976
LLC LOAD      ACCESS:     899014  HIT:      30476  MISS:     868538
LLC RFO       ACCESS:     277362  HIT:       6306  MISS:     271056
LLC PREFETCH  ACCESS:          0  HIT:          0  MISS:          0
LLC WRITEBACK ACCESS:     415886  HIT:     414504  MISS:       1382

Region of Interest Statistics

CPU 0 cumulative IPC: 0.983825 instructions: 50000002 cycles: 50822059
L1D TOTAL     ACCESS:    7574544  HIT:    2223666  MISS:    5350878
L1D LOAD      ACCESS:    1379657  HIT:    1282045  MISS:      97612
L1D RFO       ACCESS:    6194887  HIT:     941621  MISS:    5253266
L1D PREFETCH  ACCESS:          0  HIT:          0  MISS:          0
L1D WRITEBACK ACCESS:          0  HIT:          0  MISS:          0
L1D PREFETCH  REQUESTED:          0  ISSUED:          0  USEFUL:          0  USELESS:          0
L1D AVERAGE MISS LATENCY: 129.169 cycles
L1I TOTAL     ACCESS:   12787636  HIT:   12787636  MISS:          0
L1I LOAD      ACCESS:   12787636  HIT:   12787636  MISS:          0
L1I RFO       ACCESS:          0  HIT:          0  MISS:          0
L1I PREFETCH  ACCESS:          0  HIT:          0  MISS:          0
L1I WRITEBACK ACCESS:          0  HIT:          0  MISS:          0
L1I PREFETCH  REQUESTED:          0  ISSUED:          0  USEFUL:          0  USELESS:          0
L1I AVERAGE MISS LATENCY: inf cycles
L2C TOTAL     ACCESS:   10635281  HIT:    8613205  MISS:    2022076
L2C LOAD      ACCESS:      97612  HIT:      40821  MISS:      56791
L2C RFO       ACCESS:    5253266  HIT:    3287981  MISS:    1965285
L2C PREFETCH  ACCESS:          0  HIT:          0  MISS:          0
L2C WRITEBACK ACCESS:    5284403  HIT:    5284403  MISS:          0
L2C PREFETCH  REQUESTED:          0  ISSUED:          0  USEFUL:          0  USELESS:          0
L2C AVERAGE MISS LATENCY: 155.529 cycles
LLC TOTAL     ACCESS:    4002533  HIT:    3974657  MISS:      27876
LLC LOAD      ACCESS:      56791  HIT:      34482  MISS:      22309
LLC RFO       ACCESS:    1965285  HIT:    1960192  MISS:       5093
LLC PREFETCH  ACCESS:          0  HIT:          0  MISS:          0
LLC WRITEBACK ACCESS:    1980457  HIT:    1979983  MISS:        474
LLC PREFETCH  REQUESTED:          0  ISSUED:          0  USEFUL:          0  USELESS:          0
LLC AVERAGE MISS LATENCY: 22846.6 cycles
Major fault: 0 Minor fault: 5281

CPU 1 cumulative IPC: 1.28415 instructions: 50000000 cycles: 38936269
L1D TOTAL     ACCESS:   16645108  HIT:   16578774  MISS:      66334
L1D LOAD      ACCESS:    7821506  HIT:    7756978  MISS:      64528
L1D RFO       ACCESS:    8823602  HIT:    8821796  MISS:       1806
L1D PREFETCH  ACCESS:          0  HIT:          0  MISS:          0
L1D WRITEBACK ACCESS:          0  HIT:          0  MISS:          0
L1D PREFETCH  REQUESTED:          0  ISSUED:          0  USEFUL:          0  USELESS:          0
L1D AVERAGE MISS LATENCY: 402.158 cycles
L1I TOTAL     ACCESS:   12367260  HIT:   12367259  MISS:          1
L1I LOAD      ACCESS:   12367260  HIT:   12367259  MISS:          1
L1I RFO       ACCESS:          0  HIT:          0  MISS:          0
L1I PREFETCH  ACCESS:          0  HIT:          0  MISS:          0
L1I WRITEBACK ACCESS:          0  HIT:          0  MISS:          0
L1I PREFETCH  REQUESTED:          0  ISSUED:          0  USEFUL:          0  USELESS:          0
L1I AVERAGE MISS LATENCY: 215 cycles
L2C TOTAL     ACCESS:      71215  HIT:      59150  MISS:      12065
L2C LOAD      ACCESS:      64528  HIT:      54109  MISS:      10419
L2C RFO       ACCESS:       1806  HIT:        163  MISS:       1643
L2C PREFETCH  ACCESS:          0  HIT:          0  MISS:          0
L2C WRITEBACK ACCESS:       4881  HIT:       4878  MISS:          3
L2C PREFETCH  REQUESTED:          0  ISSUED:          0  USEFUL:          0  USELESS:          0
L2C AVERAGE MISS LATENCY: 1699.8 cycles
LLC TOTAL     ACCESS:      14358  HIT:       2366  MISS:      11992
LLC LOAD      ACCESS:      10419  HIT:         97  MISS:      10322
LLC RFO       ACCESS:       1643  HIT:          0  MISS:       1643
LLC PREFETCH  ACCESS:          0  HIT:          0  MISS:          0
LLC WRITEBACK ACCESS:       2296  HIT:       2269  MISS:         27
LLC PREFETCH  REQUESTED:          0  ISSUED:          0  USEFUL:          0  USELESS:          0
LLC AVERAGE MISS LATENCY: 53107.9 cycles
Major fault: 0 Minor fault: 3387

CPU 2 cumulative IPC: 0.210235 instructions: 50000001 cycles: 237829348
L1D TOTAL     ACCESS:   15731275  HIT:   14526996  MISS:    1204279
L1D LOAD      ACCESS:    9626299  HIT:    8700673  MISS:     925626
L1D RFO       ACCESS:    6104976  HIT:    5826323  MISS:     278653
L1D PREFETCH  ACCESS:          0  HIT:          0  MISS:          0
L1D WRITEBACK ACCESS:          0  HIT:          0  MISS:          0
L1D PREFETCH  REQUESTED:          0  ISSUED:          0  USEFUL:          0  USELESS:          0
L1D AVERAGE MISS LATENCY: 288.434 cycles
L1I TOTAL     ACCESS:    8535302  HIT:    8535219  MISS:         83
L1I LOAD      ACCESS:    8535302  HIT:    8535219  MISS:         83
L1I RFO       ACCESS:          0  HIT:          0  MISS:          0
L1I PREFETCH  ACCESS:          0  HIT:          0  MISS:          0
L1I WRITEBACK ACCESS:          0  HIT:          0  MISS:          0
L1I PREFETCH  REQUESTED:          0  ISSUED:          0  USEFUL:          0  USELESS:          0
L1I AVERAGE MISS LATENCY: 238.108 cycles
L2C TOTAL     ACCESS:    1621658  HIT:     445432  MISS:    1176226
L2C LOAD      ACCESS:     925709  HIT:      26758  MISS:     898951
L2C RFO       ACCESS:     278653  HIT:       1409  MISS:     277244
L2C PREFETCH  ACCESS:          0  HIT:          0  MISS:          0
L2C WRITEBACK ACCESS:     417296  HIT:     417265  MISS:         31
L2C PREFETCH  REQUESTED:          0  ISSUED:          0  USEFUL:          0  USELESS:          0
L2C AVERAGE MISS LATENCY: 279.276 cycles
LLC TOTAL     ACCESS:    1592119  HIT:     452217  MISS:    1139902
LLC LOAD      ACCESS:     898951  HIT:      31131  MISS:     867820
LLC RFO       ACCESS:     277244  HIT:       6376  MISS:     270868
LLC PREFETCH  ACCESS:          0  HIT:          0  MISS:          0
LLC WRITEBACK ACCESS:     415924  HIT:     414710  MISS:       1214
LLC PREFETCH  REQUESTED:          0  ISSUED:          0  USEFUL:          0  USELESS:          0
LLC AVERAGE MISS LATENCY: 558.706 cycles
Major fault: 0 Minor fault: 12569

CPU 3 cumulative IPC: 0.2101 instructions: 50000000 cycles: 237981727
L1D TOTAL     ACCESS:   15731129  HIT:   14526589  MISS:    1204540
L1D LOAD      ACCESS:    9626721  HIT:    8700886  MISS:     925835
L1D RFO       ACCESS:    6104408  HIT:    5825703  MISS:     278705
L1D PREFETCH  ACCESS:          0  HIT:          0  MISS:          0
L1D WRITEBACK ACCESS:          0  HIT:          0  MISS:          0
L1D PREFETCH  REQUESTED:          0  ISSUED:          0  USEFUL:          0  USELESS:          0
L1D AVERAGE MISS LATENCY: 291.122 cycles
L1I TOTAL     ACCESS:    8535742  HIT:    8535659  MISS:         83
L1I LOAD      ACCESS:    8535742  HIT:    8535659  MISS:         83
L1I RFO       ACCESS:          0  HIT:          0  MISS:          0
L1I PREFETCH  ACCESS:          0  HIT:          0  MISS:          0
L1I WRITEBACK ACCESS:          0  HIT:          0  MISS:          0
L1I PREFETCH  REQUESTED:          0  ISSUED:          0  USEFUL:          0  USELESS:          0
L1I AVERAGE MISS LATENCY: 299.928 cycles
L2C TOTAL     ACCESS:    1621879  HIT:     445467  MISS:    1176412
L2C LOAD      ACCESS:     925918  HIT:      26902  MISS:     899016
L2C RFO       ACCESS:     278705  HIT:       1343  MISS:     277362
L2C PREFETCH  ACCESS:          0  HIT:          0  MISS:          0
L2C WRITEBACK ACCESS:     417256  HIT:     417222  MISS:         34
L2C PREFETCH  REQUESTED:          0  ISSUED:          0  USEFUL:          0  USELESS:          0
L2C AVERAGE MISS LATENCY: 282.045 cycles
LLC TOTAL     ACCESS:    1592262  HIT:     451286  MISS:    1140976
LLC LOAD      ACCESS:     899014  HIT:      30476  MISS:     868538
LLC RFO       ACCESS:     277362  HIT:       6306  MISS:     271056
LLC PREFETCH  ACCESS:          0  HIT:          0  MISS:          0
LLC WRITEBACK ACCESS:     415886  HIT:     414504  MISS:       1382
LLC PREFETCH  REQUESTED:          0  ISSUED:          0  USEFUL:          0  USELESS:          0
LLC AVERAGE MISS LATENCY: 558.18 cycles
Major fault: 0 Minor fault: 12569

DRAM Statistics
 CHANNEL 0
 RQ ROW_BUFFER_HIT:     322777  ROW_BUFFER_MISS:    2159032
 DBUS_CONGESTED:    1271396
 WQ ROW_BUFFER_HIT:     274016  ROW_BUFFER_MISS:     610441  FULL:          0

 AVG_CONGESTED_CYCLE: 6

CPU 0 Branch Prediction Accuracy: 97.0231% MPKI: 5.09846 Average ROB Occupancy at Mispredict: 18.4895

Branch types
NOT_BRANCH: 195291644 82.8728%
BRANCH_DIRECT_JUMP: 737926 0.313142%
BRANCH_INDIRECT: 69728 0.0295894%
BRANCH_CONDITIONAL: 38624734 16.3906%
BRANCH_DIRECT_CALL: 463877 0.196848%
BRANCH_INDIRECT_CALL: 0 0%
BRANCH_RETURN: 463879 0.196849%
BRANCH_OTHER: 0 0%


CPU 1 Branch Prediction Accuracy: 99.408% MPKI: 1.34111 Average ROB Occupancy at Mispredict: 38.667

Branch types
NOT_BRANCH: 235374933 77.0742%
BRANCH_DIRECT_JUMP: 9751030 3.193%
BRANCH_INDIRECT: 4816032 1.57702%
BRANCH_CONDITIONAL: 45711105 14.9682%
BRANCH_DIRECT_CALL: 4841212 1.58527%
BRANCH_INDIRECT_CALL: 26007 0.00851606%
BRANCH_RETURN: 4867219 1.59378%
BRANCH_OTHER: 0 0%


CPU 2 Branch Prediction Accuracy: 89.4% MPKI: 22.953 Average ROB Occupancy at Mispredict: 29.6254

Branch types
NOT_BRANCH: 38990586 77.8936%
BRANCH_DIRECT_JUMP: 417951 0.834963%
BRANCH_INDIRECT: 81001 0.16182%
BRANCH_CONDITIONAL: 8862135 17.7044%
BRANCH_DIRECT_CALL: 527514 1.05384%
BRANCH_INDIRECT_CALL: 324789 0.648849%
BRANCH_RETURN: 852300 1.70269%
BRANCH_OTHER: 0 0%


CPU 3 Branch Prediction Accuracy: 89.4038% MPKI: 22.9457 Average ROB Occupancy at Mispredict: 29.6366

Branch types
NOT_BRANCH: 38947485 77.895%
BRANCH_DIRECT_JUMP: 417466 0.834932%
BRANCH_INDIRECT: 81087 0.162174%
BRANCH_CONDITIONAL: 8852197 17.7044%
BRANCH_DIRECT_CALL: 526842 1.05368%
BRANCH_INDIRECT_CALL: 324012 0.648024%
BRANCH_RETURN: 850854 1.70171%
BRANCH_OTHER: 0 0%

